1

   Abaqus 6.14-2                                  Date 26-днды-2016   Time 16:42:49
   For use by Supplied By SSQ under license from Dassault Systemes or its subsidiary.



                         The Abaqus Software is a product of:

                           Dassault Systemes Simulia Corp.
                                 Rising Sun Mills
                                 166 Valley Street
                           Providence, RI 02909-2499, USA
 


                   The Abaqus Software is available only under license
                   from Dassault Systemes or its subsidiary and may be
                   used or reproduced only in accordance with the terms
                   of such license.
 
                          On machine N16041430 
                          you are authorized to run
                          Abaqus/Explicit until 31-Dec-2055

                          Your site id is:  


 
                    For assistance or any other information you may
                    obtain contact information for your local office
                    from the world wide web at:

                      http://www.3ds.com/products/simulia/locations/

 
                * * * * * * * * * * * * * * * * * * * * * * * * * * * * * * 
                *                                                         * 
                *                   *****************                     * 
                *                   *  N O T I C E  *                     * 
                *                   *****************                     * 
                *                                                         * 
                *                                                         * 
                *                    Abaqus 6.14-2                        * 
                *                                                         * 
                *          BUILD ID: 2014_08_22-22.00.46 134497           * 
                *                                                         * 
                *                                                         * 
                *  Please make sure you are using release 6.14 manuals    * 
                *  plus the notes accompanying this release.              * 
                *                                                         * 
                *                                                         * 
                *                                                         * 
                *                                                         * 
                * * * * * * * * * * * * * * * * * * * * * * * * * * * * * * 


 



     PROCESSING PART, INSTANCE, AND ASSEMBLY INFORMATION
   *******************************************************


     END PROCESSING PART, INSTANCE, AND ASSEMBLY INFORMATION
   ***********************************************************




     OPTIONS BEING PROCESSED
   ***************************


  *Heading
  *Node
  *Element, type=C3D8R
  *Nset, nset="ASSEMBLY_TISSUE_15MM-1_Edge Seeds-1"
  *Nset, nset="ASSEMBLY_TISSUE_15MM-1_Edge Seeds-2"
  *Nset, nset=ASSEMBLY_TISSUE_15MM-1_ALE_DOMAIN
  *Nset, nset=ASSEMBLY_TISSUE_15MM-1_WHOLE
  *Elset, elset="ASSEMBLY_TISSUE_15MM-1_Edge Seeds-1"
  *Elset, elset="ASSEMBLY_TISSUE_15MM-1_Edge Seeds-2"
  *Elset, elset=ASSEMBLY_TISSUE_15MM-1_ALE_DOMAIN
  *Elset, elset=ASSEMBLY_TISSUE_15MM-1_ALLELEMENTS
  *Elset, elset=ASSEMBLY_TISSUE_15MM-1_WHOLE
  *Elset, elset=ASSEMBLY_TISSUE_15MM-1__INTERIOR_S3
  *Elset, elset=ASSEMBLY_TISSUE_15MM-1__INTERIOR_S4
  *Node
  *Element, type=C3D8R
  *Nset, nset=ASSEMBLY_NEEDLEF-1_NEEDLEF-REFPT_
  *Nset, nset=ASSEMBLY_NEEDLEF-1_RP
  *Nset, nset=ASSEMBLY_NEEDLEF-1_WHOLE
  *Elset, elset=ASSEMBLY_NEEDLEF-1_WHOLE
  *Elset, elset=ASSEMBLY_NEEDLEF-1__MASTER_S3
  *Elset, elset=ASSEMBLY_NEEDLEF-1__MASTER_S4
  *Elset, elset=ASSEMBLY_NEEDLEF-1__WHOLE_S1
  *Elset, elset=ASSEMBLY_NEEDLEF-1__WHOLE_S2
  *Elset, elset=ASSEMBLY_NEEDLEF-1__WHOLE_S3
  *Elset, elset=ASSEMBLY_NEEDLEF-1__WHOLE_S4
  *Nset, nset=ASSEMBLY_TISSUE_POSTERIOR
  *Nset, nset=ASSEMBLY_TISSUE_ROUND
  *Elset, elset=ASSEMBLY_TISSUE_POSTERIOR
  *Elset, elset=ASSEMBLY_TISSUE_ROUND
  *rigidbody, refnode=ASSEMBLY_NEEDLEF-1_RP, elset=ASSEMBLY_NEEDLEF-1_WHOLE
  *rigidbody, refnode=ASSEMBLY_NEEDLEF-1_RP, elset=ASSEMBLY_NEEDLEF-1_WHOLE
  *rigidbody, refnode=ASSEMBLY_NEEDLEF-1_RP, elset=ASSEMBLY_NEEDLEF-1_WHOLE
  *rigidbody, refnode=ASSEMBLY_NEEDLEF-1_RP, elset=ASSEMBLY_NEEDLEF-1_WHOLE
  *surface, type=ELEMENT, name=ASSEMBLY_TISSUE_15MM-1_INTERIOR
  *surface, type=ELEMENT, name=ASSEMBLY_NEEDLEF-1_MASTER
  *surface, type=ELEMENT, name=ASSEMBLY_NEEDLEF-1_WHOLE
  *surface, type=NODE, name=ASSEMBLY_NEEDLEF-1_WHOLE_CNS_
  *surface, type=ELEMENT, name=ASSEMBLY_TISSUE_15MM-1_INTERIOR
  *surface, type=ELEMENT, name=ASSEMBLY_NEEDLEF-1_MASTER
  *surface, type=ELEMENT, name=ASSEMBLY_NEEDLEF-1_WHOLE
  *surface, type=NODE, name=ASSEMBLY_NEEDLEF-1_WHOLE_CNS_
  *rigidbody, refnode=ASSEMBLY_NEEDLEF-1_RP, elset=ASSEMBLY_NEEDLEF-1_WHOLE
  *coupling, constraintname=ASSEMBLY_MOTION, refnode=ASSEMBLY_NEEDLEF-1_RP, surface=ASSEMBLY_NEEDLEF-1_WHOLE_CNS_

 ***NOTE: THE REFERENCE NODE 2641 INSTANCE NEEDLEF-1 LOCATED ON THE SURFACE 
          ASSEMBLY_NEEDLEF-1_WHOLE_CNS_ WILL NOT BE SELECTED AS A COUPLING NODE
  *coupling, constraintname=ASSEMBLY_MOTION, refnode=ASSEMBLY_NEEDLEF-1_RP, surface=ASSEMBLY_NEEDLEF-1_WHOLE_CNS_
  *coupling, constraintname=ASSEMBLY_MOTION, refnode=ASSEMBLY_NEEDLEF-1_RP, surface=ASSEMBLY_NEEDLEF-1_WHOLE_CNS_
  *kinematic

 ***NOTE: THE REFERENCE NODE 2641 INSTANCE NEEDLEF-1 LOCATED ON THE SURFACE 
          ASSEMBLY_NEEDLEF-1_WHOLE_CNS_ WILL NOT BE SELECTED AS A COUPLING NODE
  *coupling, constraintname=ASSEMBLY_MOTION, refnode=ASSEMBLY_NEEDLEF-1_RP, surface=ASSEMBLY_NEEDLEF-1_WHOLE_CNS_
  *material, name=PAPERSETTING
  *density
  *hyperelastic, neohooke

 ***WARNING: D1 FOR HYPERELASTIC MATERIAL IS ZERO IN THE INPUT FILE. A DEFAULT 
             VALUE IS USED.
  *viscosity

 ***ERROR: THE *VISCOSITY OPTION MUST BE USED IN COMBINATION WITH THE *EOS 
           OPTION
 ***NOTE: DUE TO AN INPUT ERROR THE ANALYSIS PRE-PROCESSOR HAS BEEN UNABLE TO 
          INTERPRET SOME DATA.  SUBSEQUENT ERRORS MAY BE CAUSED BY THIS OMISSION
  *material, name=SS
  *density
  *elastic
  *surfaceinteraction, name=INTPROP-1
  *friction
  *solidsection, elset=ASSEMBLY_TISSUE_15MM-1_WHOLE, controls=EC-1, material=PAPERSETTING
  *solidsection, elset=ASSEMBLY_NEEDLEF-1_WHOLE, material=SS
  *sectioncontrols, name=EC-1, elementdeletion=YES
  *rigidbody, refnode=ASSEMBLY_NEEDLEF-1_RP, elset=ASSEMBLY_NEEDLEF-1_WHOLE
  *rigidbody, refnode=ASSEMBLY_NEEDLEF-1_RP, elset=ASSEMBLY_NEEDLEF-1_WHOLE
  *solidsection, elset=ASSEMBLY_TISSUE_15MM-1_WHOLE, controls=EC-1, material=PAPERSETTING
  *solidsection, elset=ASSEMBLY_NEEDLEF-1_WHOLE, material=SS
  *solidsection, elset=ASSEMBLY_TISSUE_15MM-1_WHOLE, controls=EC-1, material=PAPERSETTING
  *solidsection, elset=ASSEMBLY_NEEDLEF-1_WHOLE, material=SS
  *rigidbody, refnode=ASSEMBLY_NEEDLEF-1_RP, elset=ASSEMBLY_NEEDLEF-1_WHOLE
  *friction
  *elementoutput, directions=YES
  *rigidbody, refnode=ASSEMBLY_NEEDLEF-1_RP, elset=ASSEMBLY_NEEDLEF-1_WHOLE
  *output, field
  *output, history
  *Step, name=Cut, nlgeom=YES
  *Step, name=Cut, nlgeom=YES
  *dynamic, explicit
  *fixedmassscaling, dt=0.0005, type=BELOWMIN
  *boundary, type=VELOCITY
  *adaptivemeshcontrols, name=ADA-1
  *output, field
  *nodeoutput
  *elementoutput, directions=YES
  *output, history
  *energyoutput
  *nodeoutput, nset=ASSEMBLY_NEEDLEF-1_RP
  *endstep

 ***WARNING: THE REQUEST FOR MISES OUTPUT WILL BE REPLACED BY A REQUEST FOR S 
             OUTPUT

 ***WARNING: INTEGRATION AND SECTION POINT OUTPUT VARIABLES WILL NOT BE OUTPUT 
             FOR DEFORMABLE ELEMENTS THAT ARE DECLARED AS RIGID USING THE 
             *RIGID BODY OPTION

 ***WARNING: INTEGRATION AND SECTION POINT OUTPUT VARIABLES WILL NOT BE OUTPUT 
             FOR DEFORMABLE ELEMENTS THAT ARE DECLARED AS RIGID USING THE 
             *RIGID BODY OPTION

 ***WARNING: INTEGRATION AND SECTION POINT OUTPUT VARIABLES WILL NOT BE OUTPUT 
             FOR DEFORMABLE ELEMENTS THAT ARE DECLARED AS RIGID USING THE 
             *RIGID BODY OPTION

 ***WARNING: OUTPUT REQUEST CTSHR IS NOT AVAILABLE FOR THIS TYPE OF ANALYSIS

 ***WARNING: OUTPUT REQUEST E IS NOT AVAILABLE IN A NONLINEAR STEP -- LE (LOG 
             STRAIN) WILL BE OUTPUT INSTEAD.

 ***WARNING: OUTPUT REQUEST MISESONLY IS NOT AVAILABLE FOR THIS TYPE OF ANALYSIS

 ***WARNING: OUTPUT REQUEST PRESSONLY IS NOT AVAILABLE FOR THIS TYPE OF ANALYSIS

 ***WARNING: OUTPUT REQUEST PS IS NOT AVAILABLE FOR THIS TYPE OF ANALYSIS

 ***WARNING: OUTPUT REQUEST VS IS NOT AVAILABLE FOR THIS TYPE OF ANALYSIS

 ***WARNING: OUTPUT REQUEST SDEG IS NOT AVAILABLE FOR THE MATERIAL FOR ELEMENT 
             TYPE C3D8R

 ***WARNING: OUTPUT REQUEST SVAVG IS NOT AVAILABLE FOR ELEMENT TYPE C3D8R

 ***WARNING: OUTPUT REQUEST TSHR IS NOT AVAILABLE FOR ELEMENT TYPE C3D8R

 ***WARNING: OUTPUT REQUEST SSAVG IS NOT AVAILABLE FOR ELEMENT TYPE C3D8R
  *surface, type=ELEMENT, name=ASSEMBLY_TISSUE_15MM-1_INTERIOR
  *surface, type=ELEMENT, name=ASSEMBLY_NEEDLEF-1_MASTER
  *surface, type=ELEMENT, name=ASSEMBLY_NEEDLEF-1_WHOLE
  *surface, type=NODE, name=ASSEMBLY_NEEDLEF-1_WHOLE_CNS_
  *surfaceinteraction, name=INTPROP-1
  *friction
  *surfacebehavior, pressure-overclosure=HARD
  *boundary, type=VELOCITY
  *boundary
  *contact, op=NEW

 ***WARNING: OP=NEW on *CONTACT is ignored when the general contact definition 
             is specified as model data.
  *contactinclusions
  *contactpropertyassignment
  *Step, name=Cut, nlgeom=YES
  *dynamic, explicit
  *boundary, type=VELOCITY
  *endstep
  
                               E L E M E N T   Q U A L I T Y  C H E C K S        
  
  
 ***NOTES: DISTORTED ISOPARAMETRIC ELEMENTS: ANGLE BETWEEN ISOPARAMETRIC LINES 
           IS LESS THAN 45 DEGREES OR GREATER THAN 135 DEGREES.
  
           TETRAHEDRAL QUALITY MEASURE: VOLUME OF TETRAHEDRON DIVIDED BY THE 
           VOLUME OF EQUILATERAL TETRAHEDRON WITH SAME CIRCUMSPHERE RADIUS; 
           0 FOR DEGENERATE TETRAHEDRON AND 1 FOR EQUILATERIAL TETRAHEDRON. IT 
           IS RECOMMENDED THAT THE TETRAHEDRAL QUALITY MEASURE BE GREATER THAN 
           0.02, THE MIN INTERIOR (DIHEDRAL) ANGLE BE GREATER THAN 10 DEGREES, 
           AND THE MAX INTERIOR (DIHEDRAL) ANGLE BE LESS THAN 160 DEGREES. 
  
           MODIFIED TETRAHEDRAL QUALITY MEASURE: ANGLES BETWEEN THE TWO LINE 
           SEGMENTS ON EACH EDGE; THE EDGES OF MODIFIED TETRAHEDRAL SHOULD BE 
           AS STRAIGHT AS POSSIBLE. IT IS RECOMMENDED THAT THE ANGLE BETWEEN 
           THE TWO LINE SEGMENTS ON EACH EDGE IS BETWEEN 160 AND 180 DEGREES. 
  
           TRIANGULAR QUALITY MEASURE: AREA OF TRIANGLE DIVIDED BY THE AREA OF 
           EQUILATERAL TRIANGLE WITH SAME CIRCUMCIRCLE RADIUS; 0 FOR DEGENERATE 
           TRIANGLE AND 1 FOR EQUILATERAL TRIANGLE. IT IS RECOMMENDED THAT THE
           TRIANGULAR QUALITY MEASURE BE GREATER THAN 0.01, THE MIN INTERIOR 
           ANGLE BE GREATER THAN 10 DEGREES, AND THE MAX INTERIOR ANGLE BE LESS 
           THAN 160 DEGREES. 
  
           NODAL ADJUSTMENTS ARISING FROM CONTACT INTERACTIONS AND/OR TIE 
           CONSTRAINTS CAN CAUSE SEVERE ELEMENT DISTORTION. IT MAY BE NECESSARY 
           TO REMESH IN ORDER TO REDUCE THE AMOUNT OF ADJUSTMENT. 

 ***WARNING: 4 elements are distorted. Either the isoparametric angles are out 
             of the suggested limits or the triangular or tetrahedral quality 
             measure is bad. The elements have been identified in element set 
             WarnElemDistorted.
  
 --------------------------------------------------------------------------------
 Distorted isoparametric elements
  
         Element          Min/max angle   Adjusted nodes 
 ----------------------- ---------------- -------------- 
     TISSUE_15MM-1.74472          44.9694       NO       
     TISSUE_15MM-1.74852          44.8116       NO       
    TISSUE_15MM-1.166572          44.9694       NO       
    TISSUE_15MM-1.166952          44.8116       NO       
  

 ***WARNING: DEGREE OF FREEDOM 4 IS NOT ACTIVE ON NODE 1 INSTANCE TISSUE_15MM-1 
             - THIS BOUNDARY CONDITION IS IGNORED

 ***WARNING: DEGREE OF FREEDOM 5 IS NOT ACTIVE ON NODE 1 INSTANCE TISSUE_15MM-1 
             - THIS BOUNDARY CONDITION IS IGNORED

 ***WARNING: DEGREE OF FREEDOM 6 IS NOT ACTIVE ON NODE 1 INSTANCE TISSUE_15MM-1 
             - THIS BOUNDARY CONDITION IS IGNORED

 ***WARNING: DEGREE OF FREEDOM 4 IS NOT ACTIVE ON NODE 2 INSTANCE TISSUE_15MM-1 
             - THIS BOUNDARY CONDITION IS IGNORED

 ***WARNING: DEGREE OF FREEDOM 5 IS NOT ACTIVE ON NODE 2 INSTANCE TISSUE_15MM-1 
             - THIS BOUNDARY CONDITION IS IGNORED

 ***WARNING: DEGREE OF FREEDOM 6 IS NOT ACTIVE ON NODE 2 INSTANCE TISSUE_15MM-1 
             - THIS BOUNDARY CONDITION IS IGNORED

 ***WARNING: DEGREE OF FREEDOM 4 IS NOT ACTIVE ON NODE 3 INSTANCE TISSUE_15MM-1 
             - THIS BOUNDARY CONDITION IS IGNORED

 ***WARNING: DEGREE OF FREEDOM 5 IS NOT ACTIVE ON NODE 3 INSTANCE TISSUE_15MM-1 
             - THIS BOUNDARY CONDITION IS IGNORED

 ***WARNING: DEGREE OF FREEDOM 6 IS NOT ACTIVE ON NODE 3 INSTANCE TISSUE_15MM-1 
             - THIS BOUNDARY CONDITION IS IGNORED

 ***WARNING: DEGREE OF FREEDOM 4 IS NOT ACTIVE ON NODE 4 INSTANCE TISSUE_15MM-1 
             - THIS BOUNDARY CONDITION IS IGNORED

 ***WARNING: DEGREE OF FREEDOM 5 IS NOT ACTIVE ON NODE 4 INSTANCE TISSUE_15MM-1 
             - THIS BOUNDARY CONDITION IS IGNORED

 ***WARNING: DEGREE OF FREEDOM 6 IS NOT ACTIVE ON NODE 4 INSTANCE TISSUE_15MM-1 
             - THIS BOUNDARY CONDITION IS IGNORED

 ***WARNING: DEGREE OF FREEDOM 4 IS NOT ACTIVE ON NODE 9 INSTANCE TISSUE_15MM-1 
             - THIS BOUNDARY CONDITION IS IGNORED

 ***WARNING: DEGREE OF FREEDOM 5 IS NOT ACTIVE ON NODE 9 INSTANCE TISSUE_15MM-1 
             - THIS BOUNDARY CONDITION IS IGNORED

 ***WARNING: DEGREE OF FREEDOM 6 IS NOT ACTIVE ON NODE 9 INSTANCE TISSUE_15MM-1 
             - THIS BOUNDARY CONDITION IS IGNORED

 ***WARNING: DEGREE OF FREEDOM 4 IS NOT ACTIVE ON NODE 11 INSTANCE 
             TISSUE_15MM-1 - THIS BOUNDARY CONDITION IS IGNORED

 ***WARNING: DEGREE OF FREEDOM 5 IS NOT ACTIVE ON NODE 11 INSTANCE 
             TISSUE_15MM-1 - THIS BOUNDARY CONDITION IS IGNORED

 ***WARNING: DEGREE OF FREEDOM 6 IS NOT ACTIVE ON NODE 11 INSTANCE 
             TISSUE_15MM-1 - THIS BOUNDARY CONDITION IS IGNORED

 ***WARNING: DEGREE OF FREEDOM 4 IS NOT ACTIVE ON NODE 12 INSTANCE 
             TISSUE_15MM-1 - THIS BOUNDARY CONDITION IS IGNORED

 ***WARNING: DEGREE OF FREEDOM 5 IS NOT ACTIVE ON NODE 12 INSTANCE 
             TISSUE_15MM-1 - THIS BOUNDARY CONDITION IS IGNORED

 ***WARNING: DEGREE OF FREEDOM 6 IS NOT ACTIVE ON NODE 12 INSTANCE 
             TISSUE_15MM-1 - THIS BOUNDARY CONDITION IS IGNORED

 ***WARNING: DEGREE OF FREEDOM 4 IS NOT ACTIVE ON NODE 15 INSTANCE 
             TISSUE_15MM-1 - THIS BOUNDARY CONDITION IS IGNORED

 ***WARNING: DEGREE OF FREEDOM 5 IS NOT ACTIVE ON NODE 15 INSTANCE 
             TISSUE_15MM-1 - THIS BOUNDARY CONDITION IS IGNORED

 ***WARNING: DEGREE OF FREEDOM 6 IS NOT ACTIVE ON NODE 15 INSTANCE 
             TISSUE_15MM-1 - THIS BOUNDARY CONDITION IS IGNORED

 ***WARNING: DEGREE OF FREEDOM 4 IS NOT ACTIVE ON NODE 16 INSTANCE 
             TISSUE_15MM-1 - THIS BOUNDARY CONDITION IS IGNORED

 ***WARNING: DEGREE OF FREEDOM 5 IS NOT ACTIVE ON NODE 16 INSTANCE 
             TISSUE_15MM-1 - THIS BOUNDARY CONDITION IS IGNORED

 ***WARNING: DEGREE OF FREEDOM 6 IS NOT ACTIVE ON NODE 16 INSTANCE 
             TISSUE_15MM-1 - THIS BOUNDARY CONDITION IS IGNORED

 ***WARNING: DEGREE OF FREEDOM 4 IS NOT ACTIVE ON NODE 19 INSTANCE 
             TISSUE_15MM-1 - THIS BOUNDARY CONDITION IS IGNORED

 ***WARNING: DEGREE OF FREEDOM 5 IS NOT ACTIVE ON NODE 19 INSTANCE 
             TISSUE_15MM-1 - THIS BOUNDARY CONDITION IS IGNORED

 ***WARNING: DEGREE OF FREEDOM 6 IS NOT ACTIVE ON NODE 19 INSTANCE 
             TISSUE_15MM-1 - THIS BOUNDARY CONDITION IS IGNORED

 ***WARNING: DEGREE OF FREEDOM 4 IS NOT ACTIVE ON NODE 20 INSTANCE 
             TISSUE_15MM-1 - THIS BOUNDARY CONDITION IS IGNORED

 ***WARNING: DEGREE OF FREEDOM 5 IS NOT ACTIVE ON NODE 20 INSTANCE 
             TISSUE_15MM-1 - THIS BOUNDARY CONDITION IS IGNORED

 ***WARNING: DEGREE OF FREEDOM 6 IS NOT ACTIVE ON NODE 20 INSTANCE 
             TISSUE_15MM-1 - THIS BOUNDARY CONDITION IS IGNORED

 ***WARNING: DEGREE OF FREEDOM 4 IS NOT ACTIVE ON NODE 21 INSTANCE 
             TISSUE_15MM-1 - THIS BOUNDARY CONDITION IS IGNORED

 ***WARNING: DEGREE OF FREEDOM 5 IS NOT ACTIVE ON NODE 21 INSTANCE 
             TISSUE_15MM-1 - THIS BOUNDARY CONDITION IS IGNORED

 ***WARNING: DEGREE OF FREEDOM 6 IS NOT ACTIVE ON NODE 21 INSTANCE 
             TISSUE_15MM-1 - THIS BOUNDARY CONDITION IS IGNORED

 ***WARNING: DEGREE OF FREEDOM 4 IS NOT ACTIVE ON NODE 22 INSTANCE 
             TISSUE_15MM-1 - THIS BOUNDARY CONDITION IS IGNORED

 ***WARNING: DEGREE OF FREEDOM 5 IS NOT ACTIVE ON NODE 22 INSTANCE 
             TISSUE_15MM-1 - THIS BOUNDARY CONDITION IS IGNORED

 ***WARNING: DEGREE OF FREEDOM 6 IS NOT ACTIVE ON NODE 22 INSTANCE 
             TISSUE_15MM-1 - THIS BOUNDARY CONDITION IS IGNORED

 ***WARNING: DEGREE OF FREEDOM 4 IS NOT ACTIVE ON NODE 23 INSTANCE 
             TISSUE_15MM-1 - THIS BOUNDARY CONDITION IS IGNORED

 ***WARNING: DEGREE OF FREEDOM 5 IS NOT ACTIVE ON NODE 23 INSTANCE 
             TISSUE_15MM-1 - THIS BOUNDARY CONDITION IS IGNORED

 ***WARNING: DEGREE OF FREEDOM 6 IS NOT ACTIVE ON NODE 23 INSTANCE 
             TISSUE_15MM-1 - THIS BOUNDARY CONDITION IS IGNORED

 ***WARNING: DEGREE OF FREEDOM 4 IS NOT ACTIVE ON NODE 24 INSTANCE 
             TISSUE_15MM-1 - THIS BOUNDARY CONDITION IS IGNORED

 ***WARNING: DEGREE OF FREEDOM 5 IS NOT ACTIVE ON NODE 24 INSTANCE 
             TISSUE_15MM-1 - THIS BOUNDARY CONDITION IS IGNORED

 ***WARNING: DEGREE OF FREEDOM 6 IS NOT ACTIVE ON NODE 24 INSTANCE 
             TISSUE_15MM-1 - THIS BOUNDARY CONDITION IS IGNORED

 ***WARNING: DEGREE OF FREEDOM 4 IS NOT ACTIVE ON NODE 25 INSTANCE 
             TISSUE_15MM-1 - THIS BOUNDARY CONDITION IS IGNORED

 ***WARNING: DEGREE OF FREEDOM 5 IS NOT ACTIVE ON NODE 25 INSTANCE 
             TISSUE_15MM-1 - THIS BOUNDARY CONDITION IS IGNORED

 ***WARNING: DEGREE OF FREEDOM 6 IS NOT ACTIVE ON NODE 25 INSTANCE 
             TISSUE_15MM-1 - THIS BOUNDARY CONDITION IS IGNORED

 ***WARNING: DEGREE OF FREEDOM 4 IS NOT ACTIVE ON NODE 26 INSTANCE 
             TISSUE_15MM-1 - THIS BOUNDARY CONDITION IS IGNORED

 ***WARNING: DEGREE OF FREEDOM 5 IS NOT ACTIVE ON NODE 26 INSTANCE 
             TISSUE_15MM-1 - THIS BOUNDARY CONDITION IS IGNORED

 ***WARNING: DEGREE OF FREEDOM 6 IS NOT ACTIVE ON NODE 26 INSTANCE 
             TISSUE_15MM-1 - THIS BOUNDARY CONDITION IS IGNORED

 ***WARNING: DEGREE OF FREEDOM 4 IS NOT ACTIVE ON NODE 27 INSTANCE 
             TISSUE_15MM-1 - THIS BOUNDARY CONDITION IS IGNORED

 ***WARNING: DEGREE OF FREEDOM 5 IS NOT ACTIVE ON NODE 27 INSTANCE 
             TISSUE_15MM-1 - THIS BOUNDARY CONDITION IS IGNORED

 ***WARNING: DEGREE OF FREEDOM 6 IS NOT ACTIVE ON NODE 27 INSTANCE 
             TISSUE_15MM-1 - THIS BOUNDARY CONDITION IS IGNORED

 ***WARNING: DEGREE OF FREEDOM 4 IS NOT ACTIVE ON NODE 28 INSTANCE 
             TISSUE_15MM-1 - THIS BOUNDARY CONDITION IS IGNORED

 ***WARNING: DEGREE OF FREEDOM 5 IS NOT ACTIVE ON NODE 28 INSTANCE 
             TISSUE_15MM-1 - THIS BOUNDARY CONDITION IS IGNORED

 ***WARNING: DEGREE OF FREEDOM 6 IS NOT ACTIVE ON NODE 28 INSTANCE 
             TISSUE_15MM-1 - THIS BOUNDARY CONDITION IS IGNORED

 ***WARNING: DEGREE OF FREEDOM 4 IS NOT ACTIVE ON NODE 29 INSTANCE 
             TISSUE_15MM-1 - THIS BOUNDARY CONDITION IS IGNORED

 ***WARNING: DEGREE OF FREEDOM 5 IS NOT ACTIVE ON NODE 29 INSTANCE 
             TISSUE_15MM-1 - THIS BOUNDARY CONDITION IS IGNORED

 ***WARNING: DEGREE OF FREEDOM 6 IS NOT ACTIVE ON NODE 29 INSTANCE 
             TISSUE_15MM-1 - THIS BOUNDARY CONDITION IS IGNORED

 ***WARNING: DEGREE OF FREEDOM 4 IS NOT ACTIVE ON NODE 30 INSTANCE 
             TISSUE_15MM-1 - THIS BOUNDARY CONDITION IS IGNORED

 ***WARNING: DEGREE OF FREEDOM 5 IS NOT ACTIVE ON NODE 30 INSTANCE 
             TISSUE_15MM-1 - THIS BOUNDARY CONDITION IS IGNORED

 ***WARNING: DEGREE OF FREEDOM 6 IS NOT ACTIVE ON NODE 30 INSTANCE 
             TISSUE_15MM-1 - THIS BOUNDARY CONDITION IS IGNORED

 ***WARNING: DEGREE OF FREEDOM 4 IS NOT ACTIVE ON NODE 31 INSTANCE 
             TISSUE_15MM-1 - THIS BOUNDARY CONDITION IS IGNORED

 ***WARNING: DEGREE OF FREEDOM 5 IS NOT ACTIVE ON NODE 31 INSTANCE 
             TISSUE_15MM-1 - THIS BOUNDARY CONDITION IS IGNORED

 ***WARNING: DEGREE OF FREEDOM 6 IS NOT ACTIVE ON NODE 31 INSTANCE 
             TISSUE_15MM-1 - THIS BOUNDARY CONDITION IS IGNORED

 ***WARNING: DEGREE OF FREEDOM 4 IS NOT ACTIVE ON NODE 32 INSTANCE 
             TISSUE_15MM-1 - THIS BOUNDARY CONDITION IS IGNORED

 ***WARNING: DEGREE OF FREEDOM 5 IS NOT ACTIVE ON NODE 32 INSTANCE 
             TISSUE_15MM-1 - THIS BOUNDARY CONDITION IS IGNORED

 ***WARNING: DEGREE OF FREEDOM 6 IS NOT ACTIVE ON NODE 32 INSTANCE 
             TISSUE_15MM-1 - THIS BOUNDARY CONDITION IS IGNORED

 ***WARNING: DEGREE OF FREEDOM 4 IS NOT ACTIVE ON NODE 33 INSTANCE 
             TISSUE_15MM-1 - THIS BOUNDARY CONDITION IS IGNORED

 ***WARNING: DEGREE OF FREEDOM 5 IS NOT ACTIVE ON NODE 33 INSTANCE 
             TISSUE_15MM-1 - THIS BOUNDARY CONDITION IS IGNORED

 ***WARNING: DEGREE OF FREEDOM 6 IS NOT ACTIVE ON NODE 33 INSTANCE 
             TISSUE_15MM-1 - THIS BOUNDARY CONDITION IS IGNORED

 ***WARNING: DEGREE OF FREEDOM 4 IS NOT ACTIVE ON NODE 34 INSTANCE 
             TISSUE_15MM-1 - THIS BOUNDARY CONDITION IS IGNORED

 ***WARNING: DEGREE OF FREEDOM 5 IS NOT ACTIVE ON NODE 34 INSTANCE 
             TISSUE_15MM-1 - THIS BOUNDARY CONDITION IS IGNORED

 ***WARNING: DEGREE OF FREEDOM 6 IS NOT ACTIVE ON NODE 34 INSTANCE 
             TISSUE_15MM-1 - THIS BOUNDARY CONDITION IS IGNORED

 ***WARNING: DEGREE OF FREEDOM 4 IS NOT ACTIVE ON NODE 35 INSTANCE 
             TISSUE_15MM-1 - THIS BOUNDARY CONDITION IS IGNORED

 ***WARNING: DEGREE OF FREEDOM 5 IS NOT ACTIVE ON NODE 35 INSTANCE 
             TISSUE_15MM-1 - THIS BOUNDARY CONDITION IS IGNORED

 ***WARNING: DEGREE OF FREEDOM 6 IS NOT ACTIVE ON NODE 35 INSTANCE 
             TISSUE_15MM-1 - THIS BOUNDARY CONDITION IS IGNORED

 ***WARNING: DEGREE OF FREEDOM 4 IS NOT ACTIVE ON NODE 36 INSTANCE 
             TISSUE_15MM-1 - THIS BOUNDARY CONDITION IS IGNORED

 ***WARNING: DEGREE OF FREEDOM 5 IS NOT ACTIVE ON NODE 36 INSTANCE 
             TISSUE_15MM-1 - THIS BOUNDARY CONDITION IS IGNORED

 ***WARNING: DEGREE OF FREEDOM 6 IS NOT ACTIVE ON NODE 36 INSTANCE 
             TISSUE_15MM-1 - THIS BOUNDARY CONDITION IS IGNORED

 ***WARNING: DEGREE OF FREEDOM 4 IS NOT ACTIVE ON NODE 37 INSTANCE 
             TISSUE_15MM-1 - THIS BOUNDARY CONDITION IS IGNORED

 ***WARNING: DEGREE OF FREEDOM 5 IS NOT ACTIVE ON NODE 37 INSTANCE 
             TISSUE_15MM-1 - THIS BOUNDARY CONDITION IS IGNORED

 ***WARNING: DEGREE OF FREEDOM 6 IS NOT ACTIVE ON NODE 37 INSTANCE 
             TISSUE_15MM-1 - THIS BOUNDARY CONDITION IS IGNORED

 ***WARNING: DEGREE OF FREEDOM 4 IS NOT ACTIVE ON NODE 38 INSTANCE 
             TISSUE_15MM-1 - THIS BOUNDARY CONDITION IS IGNORED

 ***WARNING: DEGREE OF FREEDOM 5 IS NOT ACTIVE ON NODE 38 INSTANCE 
             TISSUE_15MM-1 - THIS BOUNDARY CONDITION IS IGNORED

 ***WARNING: DEGREE OF FREEDOM 6 IS NOT ACTIVE ON NODE 38 INSTANCE 
             TISSUE_15MM-1 - THIS BOUNDARY CONDITION IS IGNORED

 ***WARNING: DEGREE OF FREEDOM 4 IS NOT ACTIVE ON NODE 39 INSTANCE 
             TISSUE_15MM-1 - THIS BOUNDARY CONDITION IS IGNORED

 ***WARNING: DEGREE OF FREEDOM 5 IS NOT ACTIVE ON NODE 39 INSTANCE 
             TISSUE_15MM-1 - THIS BOUNDARY CONDITION IS IGNORED

 ***WARNING: DEGREE OF FREEDOM 6 IS NOT ACTIVE ON NODE 39 INSTANCE 
             TISSUE_15MM-1 - THIS BOUNDARY CONDITION IS IGNORED

 ***WARNING: DEGREE OF FREEDOM 4 IS NOT ACTIVE ON NODE 40 INSTANCE 
             TISSUE_15MM-1 - THIS BOUNDARY CONDITION IS IGNORED

 ***WARNING: DEGREE OF FREEDOM 5 IS NOT ACTIVE ON NODE 40 INSTANCE 
             TISSUE_15MM-1 - THIS BOUNDARY CONDITION IS IGNORED

 ***WARNING: DEGREE OF FREEDOM 6 IS NOT ACTIVE ON NODE 40 INSTANCE 
             TISSUE_15MM-1 - THIS BOUNDARY CONDITION IS IGNORED

 ***WARNING: DEGREE OF FREEDOM 4 IS NOT ACTIVE ON NODE 41 INSTANCE 
             TISSUE_15MM-1 - THIS BOUNDARY CONDITION IS IGNORED

 ***WARNING: DEGREE OF FREEDOM 5 IS NOT ACTIVE ON NODE 41 INSTANCE 
             TISSUE_15MM-1 - THIS BOUNDARY CONDITION IS IGNORED

 ***WARNING: DEGREE OF FREEDOM 6 IS NOT ACTIVE ON NODE 41 INSTANCE 
             TISSUE_15MM-1 - THIS BOUNDARY CONDITION IS IGNORED

 ***WARNING: DEGREE OF FREEDOM 4 IS NOT ACTIVE ON NODE 42 INSTANCE 
             TISSUE_15MM-1 - THIS BOUNDARY CONDITION IS IGNORED

 ***WARNING: DEGREE OF FREEDOM 5 IS NOT ACTIVE ON NODE 42 INSTANCE 
             TISSUE_15MM-1 - THIS BOUNDARY CONDITION IS IGNORED

 ***WARNING: DEGREE OF FREEDOM 6 IS NOT ACTIVE ON NODE 42 INSTANCE 
             TISSUE_15MM-1 - THIS BOUNDARY CONDITION IS IGNORED

 ***WARNING: DEGREE OF FREEDOM 4 IS NOT ACTIVE ON NODE 43 INSTANCE 
             TISSUE_15MM-1 - THIS BOUNDARY CONDITION IS IGNORED

 ***WARNING: DEGREE OF FREEDOM 5 IS NOT ACTIVE ON NODE 43 INSTANCE 
             TISSUE_15MM-1 - THIS BOUNDARY CONDITION IS IGNORED

 ***WARNING: DEGREE OF FREEDOM 6 IS NOT ACTIVE ON NODE 43 INSTANCE 
             TISSUE_15MM-1 - THIS BOUNDARY CONDITION IS IGNORED

 ***WARNING: DEGREE OF FREEDOM 4 IS NOT ACTIVE ON NODE 44 INSTANCE 
             TISSUE_15MM-1 - THIS BOUNDARY CONDITION IS IGNORED

 ***WARNING: DEGREE OF FREEDOM 5 IS NOT ACTIVE ON NODE 44 INSTANCE 
             TISSUE_15MM-1 - THIS BOUNDARY CONDITION IS IGNORED

 ***WARNING: DEGREE OF FREEDOM 6 IS NOT ACTIVE ON NODE 44 INSTANCE 
             TISSUE_15MM-1 - THIS BOUNDARY CONDITION IS IGNORED

 ***WARNING: DEGREE OF FREEDOM 4 IS NOT ACTIVE ON NODE 45 INSTANCE 
             TISSUE_15MM-1 - THIS BOUNDARY CONDITION IS IGNORED

 ***WARNING: DEGREE OF FREEDOM 5 IS NOT ACTIVE ON NODE 45 INSTANCE 
             TISSUE_15MM-1 - THIS BOUNDARY CONDITION IS IGNORED

 ***WARNING: DEGREE OF FREEDOM 6 IS NOT ACTIVE ON NODE 45 INSTANCE 
             TISSUE_15MM-1 - THIS BOUNDARY CONDITION IS IGNORED

 ***WARNING: DEGREE OF FREEDOM 4 IS NOT ACTIVE ON NODE 46 INSTANCE 
             TISSUE_15MM-1 - THIS BOUNDARY CONDITION IS IGNORED

 ***WARNING: DEGREE OF FREEDOM 5 IS NOT ACTIVE ON NODE 46 INSTANCE 
             TISSUE_15MM-1 - THIS BOUNDARY CONDITION IS IGNORED

 ***WARNING: DEGREE OF FREEDOM 6 IS NOT ACTIVE ON NODE 46 INSTANCE 
             TISSUE_15MM-1 - THIS BOUNDARY CONDITION IS IGNORED

 ***WARNING: DEGREE OF FREEDOM 4 IS NOT ACTIVE ON NODE 47 INSTANCE 
             TISSUE_15MM-1 - THIS BOUNDARY CONDITION IS IGNORED

 ***WARNING: DEGREE OF FREEDOM 5 IS NOT ACTIVE ON NODE 47 INSTANCE 
             TISSUE_15MM-1 - THIS BOUNDARY CONDITION IS IGNORED

 ***WARNING: DEGREE OF FREEDOM 6 IS NOT ACTIVE ON NODE 47 INSTANCE 
             TISSUE_15MM-1 - THIS BOUNDARY CONDITION IS IGNORED

 ***WARNING: DEGREE OF FREEDOM 4 IS NOT ACTIVE ON NODE 48 INSTANCE 
             TISSUE_15MM-1 - THIS BOUNDARY CONDITION IS IGNORED

 ***WARNING: DEGREE OF FREEDOM 5 IS NOT ACTIVE ON NODE 48 INSTANCE 
             TISSUE_15MM-1 - THIS BOUNDARY CONDITION IS IGNORED

 ***WARNING: DEGREE OF FREEDOM 6 IS NOT ACTIVE ON NODE 48 INSTANCE 
             TISSUE_15MM-1 - THIS BOUNDARY CONDITION IS IGNORED

 ***WARNING: DEGREE OF FREEDOM 4 IS NOT ACTIVE ON NODE 49 INSTANCE 
             TISSUE_15MM-1 - THIS BOUNDARY CONDITION IS IGNORED

 ***WARNING: DEGREE OF FREEDOM 5 IS NOT ACTIVE ON NODE 49 INSTANCE 
             TISSUE_15MM-1 - THIS BOUNDARY CONDITION IS IGNORED

 ***WARNING: DEGREE OF FREEDOM 6 IS NOT ACTIVE ON NODE 49 INSTANCE 
             TISSUE_15MM-1 - THIS BOUNDARY CONDITION IS IGNORED

 ***WARNING: DEGREE OF FREEDOM 4 IS NOT ACTIVE ON NODE 50 INSTANCE 
             TISSUE_15MM-1 - THIS BOUNDARY CONDITION IS IGNORED

 ***WARNING: DEGREE OF FREEDOM 5 IS NOT ACTIVE ON NODE 50 INSTANCE 
             TISSUE_15MM-1 - THIS BOUNDARY CONDITION IS IGNORED

 ***WARNING: DEGREE OF FREEDOM 6 IS NOT ACTIVE ON NODE 50 INSTANCE 
             TISSUE_15MM-1 - THIS BOUNDARY CONDITION IS IGNORED

 ***WARNING: DEGREE OF FREEDOM 4 IS NOT ACTIVE ON NODE 51 INSTANCE 
             TISSUE_15MM-1 - THIS BOUNDARY CONDITION IS IGNORED

 ***WARNING: DEGREE OF FREEDOM 5 IS NOT ACTIVE ON NODE 51 INSTANCE 
             TISSUE_15MM-1 - THIS BOUNDARY CONDITION IS IGNORED

 ***WARNING: DEGREE OF FREEDOM 6 IS NOT ACTIVE ON NODE 51 INSTANCE 
             TISSUE_15MM-1 - THIS BOUNDARY CONDITION IS IGNORED

 ***WARNING: DEGREE OF FREEDOM 4 IS NOT ACTIVE ON NODE 52 INSTANCE 
             TISSUE_15MM-1 - THIS BOUNDARY CONDITION IS IGNORED

 ***WARNING: DEGREE OF FREEDOM 5 IS NOT ACTIVE ON NODE 52 INSTANCE 
             TISSUE_15MM-1 - THIS BOUNDARY CONDITION IS IGNORED

 ***WARNING: DEGREE OF FREEDOM 6 IS NOT ACTIVE ON NODE 52 INSTANCE 
             TISSUE_15MM-1 - THIS BOUNDARY CONDITION IS IGNORED

 ***WARNING: DEGREE OF FREEDOM 4 IS NOT ACTIVE ON NODE 53 INSTANCE 
             TISSUE_15MM-1 - THIS BOUNDARY CONDITION IS IGNORED

 ***WARNING: DEGREE OF FREEDOM 5 IS NOT ACTIVE ON NODE 53 INSTANCE 
             TISSUE_15MM-1 - THIS BOUNDARY CONDITION IS IGNORED

 ***WARNING: DEGREE OF FREEDOM 6 IS NOT ACTIVE ON NODE 53 INSTANCE 
             TISSUE_15MM-1 - THIS BOUNDARY CONDITION IS IGNORED

 ***WARNING: DEGREE OF FREEDOM 4 IS NOT ACTIVE ON NODE 54 INSTANCE 
             TISSUE_15MM-1 - THIS BOUNDARY CONDITION IS IGNORED

 ***WARNING: DEGREE OF FREEDOM 5 IS NOT ACTIVE ON NODE 54 INSTANCE 
             TISSUE_15MM-1 - THIS BOUNDARY CONDITION IS IGNORED

 ***WARNING: DEGREE OF FREEDOM 6 IS NOT ACTIVE ON NODE 54 INSTANCE 
             TISSUE_15MM-1 - THIS BOUNDARY CONDITION IS IGNORED

 ***WARNING: DEGREE OF FREEDOM 4 IS NOT ACTIVE ON NODE 55 INSTANCE 
             TISSUE_15MM-1 - THIS BOUNDARY CONDITION IS IGNORED

 ***WARNING: DEGREE OF FREEDOM 5 IS NOT ACTIVE ON NODE 55 INSTANCE 
             TISSUE_15MM-1 - THIS BOUNDARY CONDITION IS IGNORED

 ***WARNING: DEGREE OF FREEDOM 6 IS NOT ACTIVE ON NODE 55 INSTANCE 
             TISSUE_15MM-1 - THIS BOUNDARY CONDITION IS IGNORED

 ***WARNING: DEGREE OF FREEDOM 4 IS NOT ACTIVE ON NODE 56 INSTANCE 
             TISSUE_15MM-1 - THIS BOUNDARY CONDITION IS IGNORED

 ***WARNING: DEGREE OF FREEDOM 5 IS NOT ACTIVE ON NODE 56 INSTANCE 
             TISSUE_15MM-1 - THIS BOUNDARY CONDITION IS IGNORED

 ***WARNING: DEGREE OF FREEDOM 6 IS NOT ACTIVE ON NODE 56 INSTANCE 
             TISSUE_15MM-1 - THIS BOUNDARY CONDITION IS IGNORED

 ***WARNING: DEGREE OF FREEDOM 4 IS NOT ACTIVE ON NODE 57 INSTANCE 
             TISSUE_15MM-1 - THIS BOUNDARY CONDITION IS IGNORED

 ***WARNING: DEGREE OF FREEDOM 5 IS NOT ACTIVE ON NODE 57 INSTANCE 
             TISSUE_15MM-1 - THIS BOUNDARY CONDITION IS IGNORED

 ***WARNING: DEGREE OF FREEDOM 6 IS NOT ACTIVE ON NODE 57 INSTANCE 
             TISSUE_15MM-1 - THIS BOUNDARY CONDITION IS IGNORED

 ***WARNING: DEGREE OF FREEDOM 4 IS NOT ACTIVE ON NODE 58 INSTANCE 
             TISSUE_15MM-1 - THIS BOUNDARY CONDITION IS IGNORED

 ***WARNING: DEGREE OF FREEDOM 5 IS NOT ACTIVE ON NODE 58 INSTANCE 
             TISSUE_15MM-1 - THIS BOUNDARY CONDITION IS IGNORED

 ***WARNING: DEGREE OF FREEDOM 6 IS NOT ACTIVE ON NODE 58 INSTANCE 
             TISSUE_15MM-1 - THIS BOUNDARY CONDITION IS IGNORED

 ***WARNING: DEGREE OF FREEDOM 4 IS NOT ACTIVE ON NODE 59 INSTANCE 
             TISSUE_15MM-1 - THIS BOUNDARY CONDITION IS IGNORED

 ***WARNING: DEGREE OF FREEDOM 5 IS NOT ACTIVE ON NODE 59 INSTANCE 
             TISSUE_15MM-1 - THIS BOUNDARY CONDITION IS IGNORED

 ***WARNING: DEGREE OF FREEDOM 6 IS NOT ACTIVE ON NODE 59 INSTANCE 
             TISSUE_15MM-1 - THIS BOUNDARY CONDITION IS IGNORED

 ***WARNING: DEGREE OF FREEDOM 4 IS NOT ACTIVE ON NODE 60 INSTANCE 
             TISSUE_15MM-1 - THIS BOUNDARY CONDITION IS IGNORED

 ***WARNING: DEGREE OF FREEDOM 5 IS NOT ACTIVE ON NODE 60 INSTANCE 
             TISSUE_15MM-1 - THIS BOUNDARY CONDITION IS IGNORED

 ***WARNING: DEGREE OF FREEDOM 6 IS NOT ACTIVE ON NODE 60 INSTANCE 
             TISSUE_15MM-1 - THIS BOUNDARY CONDITION IS IGNORED

 ***WARNING: DEGREE OF FREEDOM 4 IS NOT ACTIVE ON NODE 61 INSTANCE 
             TISSUE_15MM-1 - THIS BOUNDARY CONDITION IS IGNORED

 ***WARNING: DEGREE OF FREEDOM 5 IS NOT ACTIVE ON NODE 61 INSTANCE 
             TISSUE_15MM-1 - THIS BOUNDARY CONDITION IS IGNORED

 ***WARNING: DEGREE OF FREEDOM 6 IS NOT ACTIVE ON NODE 61 INSTANCE 
             TISSUE_15MM-1 - THIS BOUNDARY CONDITION IS IGNORED

 ***WARNING: DEGREE OF FREEDOM 4 IS NOT ACTIVE ON NODE 62 INSTANCE 
             TISSUE_15MM-1 - THIS BOUNDARY CONDITION IS IGNORED

 ***WARNING: DEGREE OF FREEDOM 5 IS NOT ACTIVE ON NODE 62 INSTANCE 
             TISSUE_15MM-1 - THIS BOUNDARY CONDITION IS IGNORED

 ***WARNING: DEGREE OF FREEDOM 6 IS NOT ACTIVE ON NODE 62 INSTANCE 
             TISSUE_15MM-1 - THIS BOUNDARY CONDITION IS IGNORED

 ***WARNING: DEGREE OF FREEDOM 4 IS NOT ACTIVE ON NODE 63 INSTANCE 
             TISSUE_15MM-1 - THIS BOUNDARY CONDITION IS IGNORED

 ***WARNING: DEGREE OF FREEDOM 5 IS NOT ACTIVE ON NODE 63 INSTANCE 
             TISSUE_15MM-1 - THIS BOUNDARY CONDITION IS IGNORED

 ***WARNING: DEGREE OF FREEDOM 6 IS NOT ACTIVE ON NODE 63 INSTANCE 
             TISSUE_15MM-1 - THIS BOUNDARY CONDITION IS IGNORED

 ***WARNING: DEGREE OF FREEDOM 4 IS NOT ACTIVE ON NODE 64 INSTANCE 
             TISSUE_15MM-1 - THIS BOUNDARY CONDITION IS IGNORED

 ***WARNING: DEGREE OF FREEDOM 5 IS NOT ACTIVE ON NODE 64 INSTANCE 
             TISSUE_15MM-1 - THIS BOUNDARY CONDITION IS IGNORED

 ***WARNING: DEGREE OF FREEDOM 6 IS NOT ACTIVE ON NODE 64 INSTANCE 
             TISSUE_15MM-1 - THIS BOUNDARY CONDITION IS IGNORED

 ***WARNING: DEGREE OF FREEDOM 4 IS NOT ACTIVE ON NODE 65 INSTANCE 
             TISSUE_15MM-1 - THIS BOUNDARY CONDITION IS IGNORED

 ***WARNING: DEGREE OF FREEDOM 5 IS NOT ACTIVE ON NODE 65 INSTANCE 
             TISSUE_15MM-1 - THIS BOUNDARY CONDITION IS IGNORED

 ***WARNING: DEGREE OF FREEDOM 6 IS NOT ACTIVE ON NODE 65 INSTANCE 
             TISSUE_15MM-1 - THIS BOUNDARY CONDITION IS IGNORED

 ***WARNING: DEGREE OF FREEDOM 4 IS NOT ACTIVE ON NODE 66 INSTANCE 
             TISSUE_15MM-1 - THIS BOUNDARY CONDITION IS IGNORED

 ***WARNING: DEGREE OF FREEDOM 5 IS NOT ACTIVE ON NODE 66 INSTANCE 
             TISSUE_15MM-1 - THIS BOUNDARY CONDITION IS IGNORED

 ***WARNING: DEGREE OF FREEDOM 6 IS NOT ACTIVE ON NODE 66 INSTANCE 
             TISSUE_15MM-1 - THIS BOUNDARY CONDITION IS IGNORED

 ***WARNING: DEGREE OF FREEDOM 4 IS NOT ACTIVE ON NODE 67 INSTANCE 
             TISSUE_15MM-1 - THIS BOUNDARY CONDITION IS IGNORED

 ***WARNING: DEGREE OF FREEDOM 5 IS NOT ACTIVE ON NODE 67 INSTANCE 
             TISSUE_15MM-1 - THIS BOUNDARY CONDITION IS IGNORED

 ***WARNING: DEGREE OF FREEDOM 6 IS NOT ACTIVE ON NODE 67 INSTANCE 
             TISSUE_15MM-1 - THIS BOUNDARY CONDITION IS IGNORED

 ***WARNING: DEGREE OF FREEDOM 4 IS NOT ACTIVE ON NODE 68 INSTANCE 
             TISSUE_15MM-1 - THIS BOUNDARY CONDITION IS IGNORED

 ***WARNING: DEGREE OF FREEDOM 5 IS NOT ACTIVE ON NODE 68 INSTANCE 
             TISSUE_15MM-1 - THIS BOUNDARY CONDITION IS IGNORED

 ***WARNING: DEGREE OF FREEDOM 6 IS NOT ACTIVE ON NODE 68 INSTANCE 
             TISSUE_15MM-1 - THIS BOUNDARY CONDITION IS IGNORED

 ***WARNING: DEGREE OF FREEDOM 4 IS NOT ACTIVE ON NODE 69 INSTANCE 
             TISSUE_15MM-1 - THIS BOUNDARY CONDITION IS IGNORED

 ***WARNING: DEGREE OF FREEDOM 5 IS NOT ACTIVE ON NODE 69 INSTANCE 
             TISSUE_15MM-1 - THIS BOUNDARY CONDITION IS IGNORED

 ***WARNING: DEGREE OF FREEDOM 6 IS NOT ACTIVE ON NODE 69 INSTANCE 
             TISSUE_15MM-1 - THIS BOUNDARY CONDITION IS IGNORED

 ***WARNING: DEGREE OF FREEDOM 4 IS NOT ACTIVE ON NODE 70 INSTANCE 
             TISSUE_15MM-1 - THIS BOUNDARY CONDITION IS IGNORED

 ***WARNING: DEGREE OF FREEDOM 5 IS NOT ACTIVE ON NODE 70 INSTANCE 
             TISSUE_15MM-1 - THIS BOUNDARY CONDITION IS IGNORED

 ***WARNING: DEGREE OF FREEDOM 6 IS NOT ACTIVE ON NODE 70 INSTANCE 
             TISSUE_15MM-1 - THIS BOUNDARY CONDITION IS IGNORED

 ***WARNING: DEGREE OF FREEDOM 4 IS NOT ACTIVE ON NODE 71 INSTANCE 
             TISSUE_15MM-1 - THIS BOUNDARY CONDITION IS IGNORED

 ***WARNING: DEGREE OF FREEDOM 5 IS NOT ACTIVE ON NODE 71 INSTANCE 
             TISSUE_15MM-1 - THIS BOUNDARY CONDITION IS IGNORED

 ***WARNING: DEGREE OF FREEDOM 6 IS NOT ACTIVE ON NODE 71 INSTANCE 
             TISSUE_15MM-1 - THIS BOUNDARY CONDITION IS IGNORED

 ***WARNING: DEGREE OF FREEDOM 4 IS NOT ACTIVE ON NODE 72 INSTANCE 
             TISSUE_15MM-1 - THIS BOUNDARY CONDITION IS IGNORED

 ***WARNING: DEGREE OF FREEDOM 5 IS NOT ACTIVE ON NODE 72 INSTANCE 
             TISSUE_15MM-1 - THIS BOUNDARY CONDITION IS IGNORED

 ***WARNING: DEGREE OF FREEDOM 6 IS NOT ACTIVE ON NODE 72 INSTANCE 
             TISSUE_15MM-1 - THIS BOUNDARY CONDITION IS IGNORED

 ***WARNING: DEGREE OF FREEDOM 4 IS NOT ACTIVE ON NODE 73 INSTANCE 
             TISSUE_15MM-1 - THIS BOUNDARY CONDITION IS IGNORED

 ***WARNING: DEGREE OF FREEDOM 5 IS NOT ACTIVE ON NODE 73 INSTANCE 
             TISSUE_15MM-1 - THIS BOUNDARY CONDITION IS IGNORED

 ***WARNING: DEGREE OF FREEDOM 6 IS NOT ACTIVE ON NODE 73 INSTANCE 
             TISSUE_15MM-1 - THIS BOUNDARY CONDITION IS IGNORED

 ***WARNING: DEGREE OF FREEDOM 4 IS NOT ACTIVE ON NODE 74 INSTANCE 
             TISSUE_15MM-1 - THIS BOUNDARY CONDITION IS IGNORED

 ***WARNING: DEGREE OF FREEDOM 5 IS NOT ACTIVE ON NODE 74 INSTANCE 
             TISSUE_15MM-1 - THIS BOUNDARY CONDITION IS IGNORED

 ***WARNING: DEGREE OF FREEDOM 6 IS NOT ACTIVE ON NODE 74 INSTANCE 
             TISSUE_15MM-1 - THIS BOUNDARY CONDITION IS IGNORED

 ***WARNING: DEGREE OF FREEDOM 4 IS NOT ACTIVE ON NODE 75 INSTANCE 
             TISSUE_15MM-1 - THIS BOUNDARY CONDITION IS IGNORED

 ***WARNING: DEGREE OF FREEDOM 5 IS NOT ACTIVE ON NODE 75 INSTANCE 
             TISSUE_15MM-1 - THIS BOUNDARY CONDITION IS IGNORED

 ***WARNING: DEGREE OF FREEDOM 6 IS NOT ACTIVE ON NODE 75 INSTANCE 
             TISSUE_15MM-1 - THIS BOUNDARY CONDITION IS IGNORED

 ***WARNING: DEGREE OF FREEDOM 4 IS NOT ACTIVE ON NODE 76 INSTANCE 
             TISSUE_15MM-1 - THIS BOUNDARY CONDITION IS IGNORED

 ***WARNING: DEGREE OF FREEDOM 5 IS NOT ACTIVE ON NODE 76 INSTANCE 
             TISSUE_15MM-1 - THIS BOUNDARY CONDITION IS IGNORED

 ***WARNING: DEGREE OF FREEDOM 6 IS NOT ACTIVE ON NODE 76 INSTANCE 
             TISSUE_15MM-1 - THIS BOUNDARY CONDITION IS IGNORED

 ***WARNING: DEGREE OF FREEDOM 4 IS NOT ACTIVE ON NODE 77 INSTANCE 
             TISSUE_15MM-1 - THIS BOUNDARY CONDITION IS IGNORED

 ***WARNING: DEGREE OF FREEDOM 5 IS NOT ACTIVE ON NODE 77 INSTANCE 
             TISSUE_15MM-1 - THIS BOUNDARY CONDITION IS IGNORED

 ***WARNING: DEGREE OF FREEDOM 6 IS NOT ACTIVE ON NODE 77 INSTANCE 
             TISSUE_15MM-1 - THIS BOUNDARY CONDITION IS IGNORED

 ***WARNING: DEGREE OF FREEDOM 4 IS NOT ACTIVE ON NODE 78 INSTANCE 
             TISSUE_15MM-1 - THIS BOUNDARY CONDITION IS IGNORED

 ***WARNING: DEGREE OF FREEDOM 5 IS NOT ACTIVE ON NODE 78 INSTANCE 
             TISSUE_15MM-1 - THIS BOUNDARY CONDITION IS IGNORED

 ***WARNING: DEGREE OF FREEDOM 6 IS NOT ACTIVE ON NODE 78 INSTANCE 
             TISSUE_15MM-1 - THIS BOUNDARY CONDITION IS IGNORED

 ***WARNING: DEGREE OF FREEDOM 4 IS NOT ACTIVE ON NODE 79 INSTANCE 
             TISSUE_15MM-1 - THIS BOUNDARY CONDITION IS IGNORED

 ***WARNING: DEGREE OF FREEDOM 5 IS NOT ACTIVE ON NODE 79 INSTANCE 
             TISSUE_15MM-1 - THIS BOUNDARY CONDITION IS IGNORED

 ***WARNING: DEGREE OF FREEDOM 6 IS NOT ACTIVE ON NODE 79 INSTANCE 
             TISSUE_15MM-1 - THIS BOUNDARY CONDITION IS IGNORED

 ***WARNING: DEGREE OF FREEDOM 4 IS NOT ACTIVE ON NODE 80 INSTANCE 
             TISSUE_15MM-1 - THIS BOUNDARY CONDITION IS IGNORED

 ***WARNING: DEGREE OF FREEDOM 5 IS NOT ACTIVE ON NODE 80 INSTANCE 
             TISSUE_15MM-1 - THIS BOUNDARY CONDITION IS IGNORED

 ***WARNING: DEGREE OF FREEDOM 6 IS NOT ACTIVE ON NODE 80 INSTANCE 
             TISSUE_15MM-1 - THIS BOUNDARY CONDITION IS IGNORED

 ***WARNING: DEGREE OF FREEDOM 4 IS NOT ACTIVE ON NODE 81 INSTANCE 
             TISSUE_15MM-1 - THIS BOUNDARY CONDITION IS IGNORED

 ***WARNING: DEGREE OF FREEDOM 5 IS NOT ACTIVE ON NODE 81 INSTANCE 
             TISSUE_15MM-1 - THIS BOUNDARY CONDITION IS IGNORED

 ***WARNING: DEGREE OF FREEDOM 6 IS NOT ACTIVE ON NODE 81 INSTANCE 
             TISSUE_15MM-1 - THIS BOUNDARY CONDITION IS IGNORED

 ***WARNING: DEGREE OF FREEDOM 4 IS NOT ACTIVE ON NODE 82 INSTANCE 
             TISSUE_15MM-1 - THIS BOUNDARY CONDITION IS IGNORED

 ***WARNING: DEGREE OF FREEDOM 5 IS NOT ACTIVE ON NODE 82 INSTANCE 
             TISSUE_15MM-1 - THIS BOUNDARY CONDITION IS IGNORED

 ***WARNING: DEGREE OF FREEDOM 6 IS NOT ACTIVE ON NODE 82 INSTANCE 
             TISSUE_15MM-1 - THIS BOUNDARY CONDITION IS IGNORED

 ***WARNING: DEGREE OF FREEDOM 4 IS NOT ACTIVE ON NODE 83 INSTANCE 
             TISSUE_15MM-1 - THIS BOUNDARY CONDITION IS IGNORED

 ***WARNING: DEGREE OF FREEDOM 5 IS NOT ACTIVE ON NODE 83 INSTANCE 
             TISSUE_15MM-1 - THIS BOUNDARY CONDITION IS IGNORED

 ***WARNING: DEGREE OF FREEDOM 6 IS NOT ACTIVE ON NODE 83 INSTANCE 
             TISSUE_15MM-1 - THIS BOUNDARY CONDITION IS IGNORED

 ***WARNING: DEGREE OF FREEDOM 4 IS NOT ACTIVE ON NODE 84 INSTANCE 
             TISSUE_15MM-1 - THIS BOUNDARY CONDITION IS IGNORED

 ***WARNING: DEGREE OF FREEDOM 5 IS NOT ACTIVE ON NODE 84 INSTANCE 
             TISSUE_15MM-1 - THIS BOUNDARY CONDITION IS IGNORED

 ***WARNING: DEGREE OF FREEDOM 6 IS NOT ACTIVE ON NODE 84 INSTANCE 
             TISSUE_15MM-1 - THIS BOUNDARY CONDITION IS IGNORED

 ***WARNING: DEGREE OF FREEDOM 4 IS NOT ACTIVE ON NODE 85 INSTANCE 
             TISSUE_15MM-1 - THIS BOUNDARY CONDITION IS IGNORED

 ***WARNING: DEGREE OF FREEDOM 5 IS NOT ACTIVE ON NODE 85 INSTANCE 
             TISSUE_15MM-1 - THIS BOUNDARY CONDITION IS IGNORED

 ***WARNING: DEGREE OF FREEDOM 6 IS NOT ACTIVE ON NODE 85 INSTANCE 
             TISSUE_15MM-1 - THIS BOUNDARY CONDITION IS IGNORED

 ***WARNING: DEGREE OF FREEDOM 4 IS NOT ACTIVE ON NODE 86 INSTANCE 
             TISSUE_15MM-1 - THIS BOUNDARY CONDITION IS IGNORED

 ***WARNING: DEGREE OF FREEDOM 5 IS NOT ACTIVE ON NODE 86 INSTANCE 
             TISSUE_15MM-1 - THIS BOUNDARY CONDITION IS IGNORED

 ***WARNING: DEGREE OF FREEDOM 6 IS NOT ACTIVE ON NODE 86 INSTANCE 
             TISSUE_15MM-1 - THIS BOUNDARY CONDITION IS IGNORED

 ***WARNING: DEGREE OF FREEDOM 4 IS NOT ACTIVE ON NODE 87 INSTANCE 
             TISSUE_15MM-1 - THIS BOUNDARY CONDITION IS IGNORED

 ***WARNING: DEGREE OF FREEDOM 5 IS NOT ACTIVE ON NODE 87 INSTANCE 
             TISSUE_15MM-1 - THIS BOUNDARY CONDITION IS IGNORED

 ***WARNING: DEGREE OF FREEDOM 6 IS NOT ACTIVE ON NODE 87 INSTANCE 
             TISSUE_15MM-1 - THIS BOUNDARY CONDITION IS IGNORED

 ***WARNING: DEGREE OF FREEDOM 4 IS NOT ACTIVE ON NODE 88 INSTANCE 
             TISSUE_15MM-1 - THIS BOUNDARY CONDITION IS IGNORED

 ***WARNING: DEGREE OF FREEDOM 5 IS NOT ACTIVE ON NODE 88 INSTANCE 
             TISSUE_15MM-1 - THIS BOUNDARY CONDITION IS IGNORED

 ***WARNING: DEGREE OF FREEDOM 6 IS NOT ACTIVE ON NODE 88 INSTANCE 
             TISSUE_15MM-1 - THIS BOUNDARY CONDITION IS IGNORED

 ***WARNING: DEGREE OF FREEDOM 4 IS NOT ACTIVE ON NODE 89 INSTANCE 
             TISSUE_15MM-1 - THIS BOUNDARY CONDITION IS IGNORED

 ***WARNING: DEGREE OF FREEDOM 5 IS NOT ACTIVE ON NODE 89 INSTANCE 
             TISSUE_15MM-1 - THIS BOUNDARY CONDITION IS IGNORED

 ***WARNING: DEGREE OF FREEDOM 6 IS NOT ACTIVE ON NODE 89 INSTANCE 
             TISSUE_15MM-1 - THIS BOUNDARY CONDITION IS IGNORED

 ***WARNING: DEGREE OF FREEDOM 4 IS NOT ACTIVE ON NODE 90 INSTANCE 
             TISSUE_15MM-1 - THIS BOUNDARY CONDITION IS IGNORED

 ***WARNING: DEGREE OF FREEDOM 5 IS NOT ACTIVE ON NODE 90 INSTANCE 
             TISSUE_15MM-1 - THIS BOUNDARY CONDITION IS IGNORED

 ***WARNING: DEGREE OF FREEDOM 6 IS NOT ACTIVE ON NODE 90 INSTANCE 
             TISSUE_15MM-1 - THIS BOUNDARY CONDITION IS IGNORED

 ***WARNING: DEGREE OF FREEDOM 4 IS NOT ACTIVE ON NODE 91 INSTANCE 
             TISSUE_15MM-1 - THIS BOUNDARY CONDITION IS IGNORED

 ***WARNING: DEGREE OF FREEDOM 5 IS NOT ACTIVE ON NODE 91 INSTANCE 
             TISSUE_15MM-1 - THIS BOUNDARY CONDITION IS IGNORED

 ***WARNING: DEGREE OF FREEDOM 6 IS NOT ACTIVE ON NODE 91 INSTANCE 
             TISSUE_15MM-1 - THIS BOUNDARY CONDITION IS IGNORED

 ***WARNING: DEGREE OF FREEDOM 4 IS NOT ACTIVE ON NODE 92 INSTANCE 
             TISSUE_15MM-1 - THIS BOUNDARY CONDITION IS IGNORED

 ***WARNING: DEGREE OF FREEDOM 5 IS NOT ACTIVE ON NODE 92 INSTANCE 
             TISSUE_15MM-1 - THIS BOUNDARY CONDITION IS IGNORED

 ***WARNING: DEGREE OF FREEDOM 6 IS NOT ACTIVE ON NODE 92 INSTANCE 
             TISSUE_15MM-1 - THIS BOUNDARY CONDITION IS IGNORED

 ***WARNING: DEGREE OF FREEDOM 4 IS NOT ACTIVE ON NODE 93 INSTANCE 
             TISSUE_15MM-1 - THIS BOUNDARY CONDITION IS IGNORED

 ***WARNING: DEGREE OF FREEDOM 5 IS NOT ACTIVE ON NODE 93 INSTANCE 
             TISSUE_15MM-1 - THIS BOUNDARY CONDITION IS IGNORED

 ***WARNING: DEGREE OF FREEDOM 6 IS NOT ACTIVE ON NODE 93 INSTANCE 
             TISSUE_15MM-1 - THIS BOUNDARY CONDITION IS IGNORED

 ***WARNING: DEGREE OF FREEDOM 4 IS NOT ACTIVE ON NODE 94 INSTANCE 
             TISSUE_15MM-1 - THIS BOUNDARY CONDITION IS IGNORED

 ***WARNING: DEGREE OF FREEDOM 5 IS NOT ACTIVE ON NODE 94 INSTANCE 
             TISSUE_15MM-1 - THIS BOUNDARY CONDITION IS IGNORED

 ***WARNING: DEGREE OF FREEDOM 6 IS NOT ACTIVE ON NODE 94 INSTANCE 
             TISSUE_15MM-1 - THIS BOUNDARY CONDITION IS IGNORED

 ***WARNING: DEGREE OF FREEDOM 4 IS NOT ACTIVE ON NODE 95 INSTANCE 
             TISSUE_15MM-1 - THIS BOUNDARY CONDITION IS IGNORED

 ***WARNING: DEGREE OF FREEDOM 5 IS NOT ACTIVE ON NODE 95 INSTANCE 
             TISSUE_15MM-1 - THIS BOUNDARY CONDITION IS IGNORED

 ***WARNING: DEGREE OF FREEDOM 6 IS NOT ACTIVE ON NODE 95 INSTANCE 
             TISSUE_15MM-1 - THIS BOUNDARY CONDITION IS IGNORED

 ***WARNING: DEGREE OF FREEDOM 4 IS NOT ACTIVE ON NODE 96 INSTANCE 
             TISSUE_15MM-1 - THIS BOUNDARY CONDITION IS IGNORED

 ***WARNING: DEGREE OF FREEDOM 5 IS NOT ACTIVE ON NODE 96 INSTANCE 
             TISSUE_15MM-1 - THIS BOUNDARY CONDITION IS IGNORED

 ***WARNING: DEGREE OF FREEDOM 6 IS NOT ACTIVE ON NODE 96 INSTANCE 
             TISSUE_15MM-1 - THIS BOUNDARY CONDITION IS IGNORED

 ***WARNING: DEGREE OF FREEDOM 4 IS NOT ACTIVE ON NODE 97 INSTANCE 
             TISSUE_15MM-1 - THIS BOUNDARY CONDITION IS IGNORED

 ***WARNING: DEGREE OF FREEDOM 5 IS NOT ACTIVE ON NODE 97 INSTANCE 
             TISSUE_15MM-1 - THIS BOUNDARY CONDITION IS IGNORED

 ***WARNING: DEGREE OF FREEDOM 6 IS NOT ACTIVE ON NODE 97 INSTANCE 
             TISSUE_15MM-1 - THIS BOUNDARY CONDITION IS IGNORED

 ***WARNING: DEGREE OF FREEDOM 4 IS NOT ACTIVE ON NODE 98 INSTANCE 
             TISSUE_15MM-1 - THIS BOUNDARY CONDITION IS IGNORED

 ***WARNING: DEGREE OF FREEDOM 5 IS NOT ACTIVE ON NODE 98 INSTANCE 
             TISSUE_15MM-1 - THIS BOUNDARY CONDITION IS IGNORED

 ***WARNING: DEGREE OF FREEDOM 6 IS NOT ACTIVE ON NODE 98 INSTANCE 
             TISSUE_15MM-1 - THIS BOUNDARY CONDITION IS IGNORED

 ***WARNING: DEGREE OF FREEDOM 4 IS NOT ACTIVE ON NODE 99 INSTANCE 
             TISSUE_15MM-1 - THIS BOUNDARY CONDITION IS IGNORED

 ***WARNING: DEGREE OF FREEDOM 5 IS NOT ACTIVE ON NODE 99 INSTANCE 
             TISSUE_15MM-1 - THIS BOUNDARY CONDITION IS IGNORED

 ***WARNING: DEGREE OF FREEDOM 6 IS NOT ACTIVE ON NODE 99 INSTANCE 
             TISSUE_15MM-1 - THIS BOUNDARY CONDITION IS IGNORED

 ***WARNING: DEGREE OF FREEDOM 4 IS NOT ACTIVE ON NODE 100 INSTANCE 
             TISSUE_15MM-1 - THIS BOUNDARY CONDITION IS IGNORED

 ***WARNING: DEGREE OF FREEDOM 5 IS NOT ACTIVE ON NODE 100 INSTANCE 
             TISSUE_15MM-1 - THIS BOUNDARY CONDITION IS IGNORED

 ***WARNING: DEGREE OF FREEDOM 6 IS NOT ACTIVE ON NODE 100 INSTANCE 
             TISSUE_15MM-1 - THIS BOUNDARY CONDITION IS IGNORED

 ***WARNING: DEGREE OF FREEDOM 4 IS NOT ACTIVE ON NODE 101 INSTANCE 
             TISSUE_15MM-1 - THIS BOUNDARY CONDITION IS IGNORED

 ***WARNING: DEGREE OF FREEDOM 5 IS NOT ACTIVE ON NODE 101 INSTANCE 
             TISSUE_15MM-1 - THIS BOUNDARY CONDITION IS IGNORED

 ***WARNING: DEGREE OF FREEDOM 6 IS NOT ACTIVE ON NODE 101 INSTANCE 
             TISSUE_15MM-1 - THIS BOUNDARY CONDITION IS IGNORED

 ***WARNING: DEGREE OF FREEDOM 4 IS NOT ACTIVE ON NODE 102 INSTANCE 
             TISSUE_15MM-1 - THIS BOUNDARY CONDITION IS IGNORED

 ***WARNING: DEGREE OF FREEDOM 5 IS NOT ACTIVE ON NODE 102 INSTANCE 
             TISSUE_15MM-1 - THIS BOUNDARY CONDITION IS IGNORED

 ***WARNING: DEGREE OF FREEDOM 6 IS NOT ACTIVE ON NODE 102 INSTANCE 
             TISSUE_15MM-1 - THIS BOUNDARY CONDITION IS IGNORED

 ***WARNING: DEGREE OF FREEDOM 4 IS NOT ACTIVE ON NODE 103 INSTANCE 
             TISSUE_15MM-1 - THIS BOUNDARY CONDITION IS IGNORED

 ***WARNING: DEGREE OF FREEDOM 5 IS NOT ACTIVE ON NODE 103 INSTANCE 
             TISSUE_15MM-1 - THIS BOUNDARY CONDITION IS IGNORED

 ***WARNING: DEGREE OF FREEDOM 6 IS NOT ACTIVE ON NODE 103 INSTANCE 
             TISSUE_15MM-1 - THIS BOUNDARY CONDITION IS IGNORED

 ***WARNING: DEGREE OF FREEDOM 4 IS NOT ACTIVE ON NODE 104 INSTANCE 
             TISSUE_15MM-1 - THIS BOUNDARY CONDITION IS IGNORED

 ***WARNING: DEGREE OF FREEDOM 5 IS NOT ACTIVE ON NODE 104 INSTANCE 
             TISSUE_15MM-1 - THIS BOUNDARY CONDITION IS IGNORED

 ***WARNING: DEGREE OF FREEDOM 6 IS NOT ACTIVE ON NODE 104 INSTANCE 
             TISSUE_15MM-1 - THIS BOUNDARY CONDITION IS IGNORED

 ***WARNING: DEGREE OF FREEDOM 4 IS NOT ACTIVE ON NODE 105 INSTANCE 
             TISSUE_15MM-1 - THIS BOUNDARY CONDITION IS IGNORED

 ***WARNING: DEGREE OF FREEDOM 5 IS NOT ACTIVE ON NODE 105 INSTANCE 
             TISSUE_15MM-1 - THIS BOUNDARY CONDITION IS IGNORED

 ***WARNING: DEGREE OF FREEDOM 6 IS NOT ACTIVE ON NODE 105 INSTANCE 
             TISSUE_15MM-1 - THIS BOUNDARY CONDITION IS IGNORED

 ***WARNING: DEGREE OF FREEDOM 4 IS NOT ACTIVE ON NODE 106 INSTANCE 
             TISSUE_15MM-1 - THIS BOUNDARY CONDITION IS IGNORED

 ***WARNING: DEGREE OF FREEDOM 5 IS NOT ACTIVE ON NODE 106 INSTANCE 
             TISSUE_15MM-1 - THIS BOUNDARY CONDITION IS IGNORED

 ***WARNING: DEGREE OF FREEDOM 6 IS NOT ACTIVE ON NODE 106 INSTANCE 
             TISSUE_15MM-1 - THIS BOUNDARY CONDITION IS IGNORED

 ***WARNING: DEGREE OF FREEDOM 4 IS NOT ACTIVE ON NODE 107 INSTANCE 
             TISSUE_15MM-1 - THIS BOUNDARY CONDITION IS IGNORED

 ***WARNING: DEGREE OF FREEDOM 5 IS NOT ACTIVE ON NODE 107 INSTANCE 
             TISSUE_15MM-1 - THIS BOUNDARY CONDITION IS IGNORED

 ***WARNING: DEGREE OF FREEDOM 6 IS NOT ACTIVE ON NODE 107 INSTANCE 
             TISSUE_15MM-1 - THIS BOUNDARY CONDITION IS IGNORED

 ***WARNING: DEGREE OF FREEDOM 4 IS NOT ACTIVE ON NODE 108 INSTANCE 
             TISSUE_15MM-1 - THIS BOUNDARY CONDITION IS IGNORED

 ***WARNING: DEGREE OF FREEDOM 5 IS NOT ACTIVE ON NODE 108 INSTANCE 
             TISSUE_15MM-1 - THIS BOUNDARY CONDITION IS IGNORED

 ***WARNING: DEGREE OF FREEDOM 6 IS NOT ACTIVE ON NODE 108 INSTANCE 
             TISSUE_15MM-1 - THIS BOUNDARY CONDITION IS IGNORED

 ***WARNING: DEGREE OF FREEDOM 4 IS NOT ACTIVE ON NODE 109 INSTANCE 
             TISSUE_15MM-1 - THIS BOUNDARY CONDITION IS IGNORED

 ***WARNING: DEGREE OF FREEDOM 5 IS NOT ACTIVE ON NODE 109 INSTANCE 
             TISSUE_15MM-1 - THIS BOUNDARY CONDITION IS IGNORED

 ***WARNING: DEGREE OF FREEDOM 6 IS NOT ACTIVE ON NODE 109 INSTANCE 
             TISSUE_15MM-1 - THIS BOUNDARY CONDITION IS IGNORED

 ***WARNING: DEGREE OF FREEDOM 4 IS NOT ACTIVE ON NODE 110 INSTANCE 
             TISSUE_15MM-1 - THIS BOUNDARY CONDITION IS IGNORED

 ***WARNING: DEGREE OF FREEDOM 5 IS NOT ACTIVE ON NODE 110 INSTANCE 
             TISSUE_15MM-1 - THIS BOUNDARY CONDITION IS IGNORED

 ***WARNING: DEGREE OF FREEDOM 6 IS NOT ACTIVE ON NODE 110 INSTANCE 
             TISSUE_15MM-1 - THIS BOUNDARY CONDITION IS IGNORED

 ***WARNING: DEGREE OF FREEDOM 4 IS NOT ACTIVE ON NODE 111 INSTANCE 
             TISSUE_15MM-1 - THIS BOUNDARY CONDITION IS IGNORED

 ***WARNING: DEGREE OF FREEDOM 5 IS NOT ACTIVE ON NODE 111 INSTANCE 
             TISSUE_15MM-1 - THIS BOUNDARY CONDITION IS IGNORED

 ***WARNING: DEGREE OF FREEDOM 6 IS NOT ACTIVE ON NODE 111 INSTANCE 
             TISSUE_15MM-1 - THIS BOUNDARY CONDITION IS IGNORED

 ***WARNING: DEGREE OF FREEDOM 4 IS NOT ACTIVE ON NODE 112 INSTANCE 
             TISSUE_15MM-1 - THIS BOUNDARY CONDITION IS IGNORED

 ***WARNING: DEGREE OF FREEDOM 5 IS NOT ACTIVE ON NODE 112 INSTANCE 
             TISSUE_15MM-1 - THIS BOUNDARY CONDITION IS IGNORED

 ***WARNING: DEGREE OF FREEDOM 6 IS NOT ACTIVE ON NODE 112 INSTANCE 
             TISSUE_15MM-1 - THIS BOUNDARY CONDITION IS IGNORED

 ***WARNING: DEGREE OF FREEDOM 4 IS NOT ACTIVE ON NODE 113 INSTANCE 
             TISSUE_15MM-1 - THIS BOUNDARY CONDITION IS IGNORED

 ***WARNING: DEGREE OF FREEDOM 5 IS NOT ACTIVE ON NODE 113 INSTANCE 
             TISSUE_15MM-1 - THIS BOUNDARY CONDITION IS IGNORED

 ***WARNING: DEGREE OF FREEDOM 6 IS NOT ACTIVE ON NODE 113 INSTANCE 
             TISSUE_15MM-1 - THIS BOUNDARY CONDITION IS IGNORED

 ***WARNING: DEGREE OF FREEDOM 4 IS NOT ACTIVE ON NODE 114 INSTANCE 
             TISSUE_15MM-1 - THIS BOUNDARY CONDITION IS IGNORED

 ***WARNING: DEGREE OF FREEDOM 5 IS NOT ACTIVE ON NODE 114 INSTANCE 
             TISSUE_15MM-1 - THIS BOUNDARY CONDITION IS IGNORED

 ***WARNING: DEGREE OF FREEDOM 6 IS NOT ACTIVE ON NODE 114 INSTANCE 
             TISSUE_15MM-1 - THIS BOUNDARY CONDITION IS IGNORED

 ***WARNING: DEGREE OF FREEDOM 4 IS NOT ACTIVE ON NODE 807 INSTANCE 
             TISSUE_15MM-1 - THIS BOUNDARY CONDITION IS IGNORED

 ***WARNING: DEGREE OF FREEDOM 5 IS NOT ACTIVE ON NODE 807 INSTANCE 
             TISSUE_15MM-1 - THIS BOUNDARY CONDITION IS IGNORED

 ***WARNING: DEGREE OF FREEDOM 6 IS NOT ACTIVE ON NODE 807 INSTANCE 
             TISSUE_15MM-1 - THIS BOUNDARY CONDITION IS IGNORED

 ***WARNING: DEGREE OF FREEDOM 4 IS NOT ACTIVE ON NODE 808 INSTANCE 
             TISSUE_15MM-1 - THIS BOUNDARY CONDITION IS IGNORED

 ***WARNING: DEGREE OF FREEDOM 5 IS NOT ACTIVE ON NODE 808 INSTANCE 
             TISSUE_15MM-1 - THIS BOUNDARY CONDITION IS IGNORED

 ***WARNING: DEGREE OF FREEDOM 6 IS NOT ACTIVE ON NODE 808 INSTANCE 
             TISSUE_15MM-1 - THIS BOUNDARY CONDITION IS IGNORED

 ***WARNING: DEGREE OF FREEDOM 4 IS NOT ACTIVE ON NODE 809 INSTANCE 
             TISSUE_15MM-1 - THIS BOUNDARY CONDITION IS IGNORED

 ***WARNING: DEGREE OF FREEDOM 5 IS NOT ACTIVE ON NODE 809 INSTANCE 
             TISSUE_15MM-1 - THIS BOUNDARY CONDITION IS IGNORED

 ***WARNING: DEGREE OF FREEDOM 6 IS NOT ACTIVE ON NODE 809 INSTANCE 
             TISSUE_15MM-1 - THIS BOUNDARY CONDITION IS IGNORED

 ***WARNING: DEGREE OF FREEDOM 4 IS NOT ACTIVE ON NODE 810 INSTANCE 
             TISSUE_15MM-1 - THIS BOUNDARY CONDITION IS IGNORED

 ***WARNING: DEGREE OF FREEDOM 5 IS NOT ACTIVE ON NODE 810 INSTANCE 
             TISSUE_15MM-1 - THIS BOUNDARY CONDITION IS IGNORED

 ***WARNING: DEGREE OF FREEDOM 6 IS NOT ACTIVE ON NODE 810 INSTANCE 
             TISSUE_15MM-1 - THIS BOUNDARY CONDITION IS IGNORED

 ***WARNING: DEGREE OF FREEDOM 4 IS NOT ACTIVE ON NODE 811 INSTANCE 
             TISSUE_15MM-1 - THIS BOUNDARY CONDITION IS IGNORED

 ***WARNING: DEGREE OF FREEDOM 5 IS NOT ACTIVE ON NODE 811 INSTANCE 
             TISSUE_15MM-1 - THIS BOUNDARY CONDITION IS IGNORED

 ***WARNING: DEGREE OF FREEDOM 6 IS NOT ACTIVE ON NODE 811 INSTANCE 
             TISSUE_15MM-1 - THIS BOUNDARY CONDITION IS IGNORED

 ***WARNING: DEGREE OF FREEDOM 4 IS NOT ACTIVE ON NODE 812 INSTANCE 
             TISSUE_15MM-1 - THIS BOUNDARY CONDITION IS IGNORED

 ***WARNING: DEGREE OF FREEDOM 5 IS NOT ACTIVE ON NODE 812 INSTANCE 
             TISSUE_15MM-1 - THIS BOUNDARY CONDITION IS IGNORED

 ***WARNING: DEGREE OF FREEDOM 6 IS NOT ACTIVE ON NODE 812 INSTANCE 
             TISSUE_15MM-1 - THIS BOUNDARY CONDITION IS IGNORED

 ***WARNING: DEGREE OF FREEDOM 4 IS NOT ACTIVE ON NODE 813 INSTANCE 
             TISSUE_15MM-1 - THIS BOUNDARY CONDITION IS IGNORED

 ***WARNING: DEGREE OF FREEDOM 5 IS NOT ACTIVE ON NODE 813 INSTANCE 
             TISSUE_15MM-1 - THIS BOUNDARY CONDITION IS IGNORED

 ***WARNING: DEGREE OF FREEDOM 6 IS NOT ACTIVE ON NODE 813 INSTANCE 
             TISSUE_15MM-1 - THIS BOUNDARY CONDITION IS IGNORED

 ***WARNING: DEGREE OF FREEDOM 4 IS NOT ACTIVE ON NODE 814 INSTANCE 
             TISSUE_15MM-1 - THIS BOUNDARY CONDITION IS IGNORED

 ***WARNING: DEGREE OF FREEDOM 5 IS NOT ACTIVE ON NODE 814 INSTANCE 
             TISSUE_15MM-1 - THIS BOUNDARY CONDITION IS IGNORED

 ***WARNING: DEGREE OF FREEDOM 6 IS NOT ACTIVE ON NODE 814 INSTANCE 
             TISSUE_15MM-1 - THIS BOUNDARY CONDITION IS IGNORED

 ***WARNING: DEGREE OF FREEDOM 4 IS NOT ACTIVE ON NODE 815 INSTANCE 
             TISSUE_15MM-1 - THIS BOUNDARY CONDITION IS IGNORED

 ***WARNING: DEGREE OF FREEDOM 5 IS NOT ACTIVE ON NODE 815 INSTANCE 
             TISSUE_15MM-1 - THIS BOUNDARY CONDITION IS IGNORED

 ***WARNING: DEGREE OF FREEDOM 6 IS NOT ACTIVE ON NODE 815 INSTANCE 
             TISSUE_15MM-1 - THIS BOUNDARY CONDITION IS IGNORED

 ***WARNING: DEGREE OF FREEDOM 4 IS NOT ACTIVE ON NODE 816 INSTANCE 
             TISSUE_15MM-1 - THIS BOUNDARY CONDITION IS IGNORED

 ***WARNING: DEGREE OF FREEDOM 5 IS NOT ACTIVE ON NODE 816 INSTANCE 
             TISSUE_15MM-1 - THIS BOUNDARY CONDITION IS IGNORED

 ***WARNING: DEGREE OF FREEDOM 6 IS NOT ACTIVE ON NODE 816 INSTANCE 
             TISSUE_15MM-1 - THIS BOUNDARY CONDITION IS IGNORED

 ***WARNING: DEGREE OF FREEDOM 4 IS NOT ACTIVE ON NODE 817 INSTANCE 
             TISSUE_15MM-1 - THIS BOUNDARY CONDITION IS IGNORED

 ***WARNING: DEGREE OF FREEDOM 5 IS NOT ACTIVE ON NODE 817 INSTANCE 
             TISSUE_15MM-1 - THIS BOUNDARY CONDITION IS IGNORED

 ***WARNING: DEGREE OF FREEDOM 6 IS NOT ACTIVE ON NODE 817 INSTANCE 
             TISSUE_15MM-1 - THIS BOUNDARY CONDITION IS IGNORED

 ***WARNING: DEGREE OF FREEDOM 4 IS NOT ACTIVE ON NODE 818 INSTANCE 
             TISSUE_15MM-1 - THIS BOUNDARY CONDITION IS IGNORED

 ***WARNING: DEGREE OF FREEDOM 5 IS NOT ACTIVE ON NODE 818 INSTANCE 
             TISSUE_15MM-1 - THIS BOUNDARY CONDITION IS IGNORED

 ***WARNING: DEGREE OF FREEDOM 6 IS NOT ACTIVE ON NODE 818 INSTANCE 
             TISSUE_15MM-1 - THIS BOUNDARY CONDITION IS IGNORED

 ***WARNING: DEGREE OF FREEDOM 4 IS NOT ACTIVE ON NODE 819 INSTANCE 
             TISSUE_15MM-1 - THIS BOUNDARY CONDITION IS IGNORED

 ***WARNING: DEGREE OF FREEDOM 5 IS NOT ACTIVE ON NODE 819 INSTANCE 
             TISSUE_15MM-1 - THIS BOUNDARY CONDITION IS IGNORED

 ***WARNING: DEGREE OF FREEDOM 6 IS NOT ACTIVE ON NODE 819 INSTANCE 
             TISSUE_15MM-1 - THIS BOUNDARY CONDITION IS IGNORED

 ***WARNING: DEGREE OF FREEDOM 4 IS NOT ACTIVE ON NODE 820 INSTANCE 
             TISSUE_15MM-1 - THIS BOUNDARY CONDITION IS IGNORED

 ***WARNING: DEGREE OF FREEDOM 5 IS NOT ACTIVE ON NODE 820 INSTANCE 
             TISSUE_15MM-1 - THIS BOUNDARY CONDITION IS IGNORED

 ***WARNING: DEGREE OF FREEDOM 6 IS NOT ACTIVE ON NODE 820 INSTANCE 
             TISSUE_15MM-1 - THIS BOUNDARY CONDITION IS IGNORED

 ***WARNING: DEGREE OF FREEDOM 4 IS NOT ACTIVE ON NODE 821 INSTANCE 
             TISSUE_15MM-1 - THIS BOUNDARY CONDITION IS IGNORED

 ***WARNING: DEGREE OF FREEDOM 5 IS NOT ACTIVE ON NODE 821 INSTANCE 
             TISSUE_15MM-1 - THIS BOUNDARY CONDITION IS IGNORED

 ***WARNING: DEGREE OF FREEDOM 6 IS NOT ACTIVE ON NODE 821 INSTANCE 
             TISSUE_15MM-1 - THIS BOUNDARY CONDITION IS IGNORED

 ***WARNING: DEGREE OF FREEDOM 4 IS NOT ACTIVE ON NODE 822 INSTANCE 
             TISSUE_15MM-1 - THIS BOUNDARY CONDITION IS IGNORED

 ***WARNING: DEGREE OF FREEDOM 5 IS NOT ACTIVE ON NODE 822 INSTANCE 
             TISSUE_15MM-1 - THIS BOUNDARY CONDITION IS IGNORED

 ***WARNING: DEGREE OF FREEDOM 6 IS NOT ACTIVE ON NODE 822 INSTANCE 
             TISSUE_15MM-1 - THIS BOUNDARY CONDITION IS IGNORED

 ***WARNING: DEGREE OF FREEDOM 4 IS NOT ACTIVE ON NODE 823 INSTANCE 
             TISSUE_15MM-1 - THIS BOUNDARY CONDITION IS IGNORED

 ***WARNING: DEGREE OF FREEDOM 5 IS NOT ACTIVE ON NODE 823 INSTANCE 
             TISSUE_15MM-1 - THIS BOUNDARY CONDITION IS IGNORED

 ***WARNING: DEGREE OF FREEDOM 6 IS NOT ACTIVE ON NODE 823 INSTANCE 
             TISSUE_15MM-1 - THIS BOUNDARY CONDITION IS IGNORED

 ***WARNING: DEGREE OF FREEDOM 4 IS NOT ACTIVE ON NODE 824 INSTANCE 
             TISSUE_15MM-1 - THIS BOUNDARY CONDITION IS IGNORED

 ***WARNING: DEGREE OF FREEDOM 5 IS NOT ACTIVE ON NODE 824 INSTANCE 
             TISSUE_15MM-1 - THIS BOUNDARY CONDITION IS IGNORED

 ***WARNING: DEGREE OF FREEDOM 6 IS NOT ACTIVE ON NODE 824 INSTANCE 
             TISSUE_15MM-1 - THIS BOUNDARY CONDITION IS IGNORED

 ***WARNING: DEGREE OF FREEDOM 4 IS NOT ACTIVE ON NODE 825 INSTANCE 
             TISSUE_15MM-1 - THIS BOUNDARY CONDITION IS IGNORED

 ***WARNING: DEGREE OF FREEDOM 5 IS NOT ACTIVE ON NODE 825 INSTANCE 
             TISSUE_15MM-1 - THIS BOUNDARY CONDITION IS IGNORED

 ***WARNING: DEGREE OF FREEDOM 6 IS NOT ACTIVE ON NODE 825 INSTANCE 
             TISSUE_15MM-1 - THIS BOUNDARY CONDITION IS IGNORED

 ***WARNING: DEGREE OF FREEDOM 4 IS NOT ACTIVE ON NODE 826 INSTANCE 
             TISSUE_15MM-1 - THIS BOUNDARY CONDITION IS IGNORED

 ***WARNING: DEGREE OF FREEDOM 5 IS NOT ACTIVE ON NODE 826 INSTANCE 
             TISSUE_15MM-1 - THIS BOUNDARY CONDITION IS IGNORED

 ***WARNING: DEGREE OF FREEDOM 6 IS NOT ACTIVE ON NODE 826 INSTANCE 
             TISSUE_15MM-1 - THIS BOUNDARY CONDITION IS IGNORED

 ***WARNING: DEGREE OF FREEDOM 4 IS NOT ACTIVE ON NODE 827 INSTANCE 
             TISSUE_15MM-1 - THIS BOUNDARY CONDITION IS IGNORED

 ***WARNING: DEGREE OF FREEDOM 5 IS NOT ACTIVE ON NODE 827 INSTANCE 
             TISSUE_15MM-1 - THIS BOUNDARY CONDITION IS IGNORED

 ***WARNING: DEGREE OF FREEDOM 6 IS NOT ACTIVE ON NODE 827 INSTANCE 
             TISSUE_15MM-1 - THIS BOUNDARY CONDITION IS IGNORED

 ***WARNING: DEGREE OF FREEDOM 4 IS NOT ACTIVE ON NODE 828 INSTANCE 
             TISSUE_15MM-1 - THIS BOUNDARY CONDITION IS IGNORED

 ***WARNING: DEGREE OF FREEDOM 5 IS NOT ACTIVE ON NODE 828 INSTANCE 
             TISSUE_15MM-1 - THIS BOUNDARY CONDITION IS IGNORED

 ***WARNING: DEGREE OF FREEDOM 6 IS NOT ACTIVE ON NODE 828 INSTANCE 
             TISSUE_15MM-1 - THIS BOUNDARY CONDITION IS IGNORED

 ***WARNING: DEGREE OF FREEDOM 4 IS NOT ACTIVE ON NODE 829 INSTANCE 
             TISSUE_15MM-1 - THIS BOUNDARY CONDITION IS IGNORED

 ***WARNING: DEGREE OF FREEDOM 5 IS NOT ACTIVE ON NODE 829 INSTANCE 
             TISSUE_15MM-1 - THIS BOUNDARY CONDITION IS IGNORED

 ***WARNING: DEGREE OF FREEDOM 6 IS NOT ACTIVE ON NODE 829 INSTANCE 
             TISSUE_15MM-1 - THIS BOUNDARY CONDITION IS IGNORED

 ***WARNING: DEGREE OF FREEDOM 4 IS NOT ACTIVE ON NODE 830 INSTANCE 
             TISSUE_15MM-1 - THIS BOUNDARY CONDITION IS IGNORED

 ***WARNING: DEGREE OF FREEDOM 5 IS NOT ACTIVE ON NODE 830 INSTANCE 
             TISSUE_15MM-1 - THIS BOUNDARY CONDITION IS IGNORED

 ***WARNING: DEGREE OF FREEDOM 6 IS NOT ACTIVE ON NODE 830 INSTANCE 
             TISSUE_15MM-1 - THIS BOUNDARY CONDITION IS IGNORED

 ***WARNING: DEGREE OF FREEDOM 4 IS NOT ACTIVE ON NODE 831 INSTANCE 
             TISSUE_15MM-1 - THIS BOUNDARY CONDITION IS IGNORED

 ***WARNING: DEGREE OF FREEDOM 5 IS NOT ACTIVE ON NODE 831 INSTANCE 
             TISSUE_15MM-1 - THIS BOUNDARY CONDITION IS IGNORED

 ***WARNING: DEGREE OF FREEDOM 6 IS NOT ACTIVE ON NODE 831 INSTANCE 
             TISSUE_15MM-1 - THIS BOUNDARY CONDITION IS IGNORED

 ***WARNING: DEGREE OF FREEDOM 4 IS NOT ACTIVE ON NODE 832 INSTANCE 
             TISSUE_15MM-1 - THIS BOUNDARY CONDITION IS IGNORED

 ***WARNING: DEGREE OF FREEDOM 5 IS NOT ACTIVE ON NODE 832 INSTANCE 
             TISSUE_15MM-1 - THIS BOUNDARY CONDITION IS IGNORED

 ***WARNING: DEGREE OF FREEDOM 6 IS NOT ACTIVE ON NODE 832 INSTANCE 
             TISSUE_15MM-1 - THIS BOUNDARY CONDITION IS IGNORED

 ***WARNING: DEGREE OF FREEDOM 4 IS NOT ACTIVE ON NODE 833 INSTANCE 
             TISSUE_15MM-1 - THIS BOUNDARY CONDITION IS IGNORED

 ***WARNING: DEGREE OF FREEDOM 5 IS NOT ACTIVE ON NODE 833 INSTANCE 
             TISSUE_15MM-1 - THIS BOUNDARY CONDITION IS IGNORED

 ***WARNING: DEGREE OF FREEDOM 6 IS NOT ACTIVE ON NODE 833 INSTANCE 
             TISSUE_15MM-1 - THIS BOUNDARY CONDITION IS IGNORED

 ***WARNING: DEGREE OF FREEDOM 4 IS NOT ACTIVE ON NODE 834 INSTANCE 
             TISSUE_15MM-1 - THIS BOUNDARY CONDITION IS IGNORED

 ***WARNING: DEGREE OF FREEDOM 5 IS NOT ACTIVE ON NODE 834 INSTANCE 
             TISSUE_15MM-1 - THIS BOUNDARY CONDITION IS IGNORED

 ***WARNING: DEGREE OF FREEDOM 6 IS NOT ACTIVE ON NODE 834 INSTANCE 
             TISSUE_15MM-1 - THIS BOUNDARY CONDITION IS IGNORED

 ***WARNING: DEGREE OF FREEDOM 4 IS NOT ACTIVE ON NODE 835 INSTANCE 
             TISSUE_15MM-1 - THIS BOUNDARY CONDITION IS IGNORED

 ***WARNING: DEGREE OF FREEDOM 5 IS NOT ACTIVE ON NODE 835 INSTANCE 
             TISSUE_15MM-1 - THIS BOUNDARY CONDITION IS IGNORED

 ***WARNING: DEGREE OF FREEDOM 6 IS NOT ACTIVE ON NODE 835 INSTANCE 
             TISSUE_15MM-1 - THIS BOUNDARY CONDITION IS IGNORED

 ***WARNING: DEGREE OF FREEDOM 4 IS NOT ACTIVE ON NODE 836 INSTANCE 
             TISSUE_15MM-1 - THIS BOUNDARY CONDITION IS IGNORED

 ***WARNING: DEGREE OF FREEDOM 5 IS NOT ACTIVE ON NODE 836 INSTANCE 
             TISSUE_15MM-1 - THIS BOUNDARY CONDITION IS IGNORED

 ***WARNING: DEGREE OF FREEDOM 6 IS NOT ACTIVE ON NODE 836 INSTANCE 
             TISSUE_15MM-1 - THIS BOUNDARY CONDITION IS IGNORED

 ***WARNING: DEGREE OF FREEDOM 4 IS NOT ACTIVE ON NODE 837 INSTANCE 
             TISSUE_15MM-1 - THIS BOUNDARY CONDITION IS IGNORED

 ***WARNING: DEGREE OF FREEDOM 5 IS NOT ACTIVE ON NODE 837 INSTANCE 
             TISSUE_15MM-1 - THIS BOUNDARY CONDITION IS IGNORED

 ***WARNING: DEGREE OF FREEDOM 6 IS NOT ACTIVE ON NODE 837 INSTANCE 
             TISSUE_15MM-1 - THIS BOUNDARY CONDITION IS IGNORED

 ***WARNING: DEGREE OF FREEDOM 4 IS NOT ACTIVE ON NODE 838 INSTANCE 
             TISSUE_15MM-1 - THIS BOUNDARY CONDITION IS IGNORED

 ***WARNING: DEGREE OF FREEDOM 5 IS NOT ACTIVE ON NODE 838 INSTANCE 
             TISSUE_15MM-1 - THIS BOUNDARY CONDITION IS IGNORED

 ***WARNING: DEGREE OF FREEDOM 6 IS NOT ACTIVE ON NODE 838 INSTANCE 
             TISSUE_15MM-1 - THIS BOUNDARY CONDITION IS IGNORED

 ***WARNING: DEGREE OF FREEDOM 4 IS NOT ACTIVE ON NODE 839 INSTANCE 
             TISSUE_15MM-1 - THIS BOUNDARY CONDITION IS IGNORED

 ***WARNING: DEGREE OF FREEDOM 5 IS NOT ACTIVE ON NODE 839 INSTANCE 
             TISSUE_15MM-1 - THIS BOUNDARY CONDITION IS IGNORED

 ***WARNING: DEGREE OF FREEDOM 6 IS NOT ACTIVE ON NODE 839 INSTANCE 
             TISSUE_15MM-1 - THIS BOUNDARY CONDITION IS IGNORED

 ***WARNING: DEGREE OF FREEDOM 4 IS NOT ACTIVE ON NODE 840 INSTANCE 
             TISSUE_15MM-1 - THIS BOUNDARY CONDITION IS IGNORED

 ***WARNING: DEGREE OF FREEDOM 5 IS NOT ACTIVE ON NODE 840 INSTANCE 
             TISSUE_15MM-1 - THIS BOUNDARY CONDITION IS IGNORED

 ***WARNING: DEGREE OF FREEDOM 6 IS NOT ACTIVE ON NODE 840 INSTANCE 
             TISSUE_15MM-1 - THIS BOUNDARY CONDITION IS IGNORED

 ***WARNING: DEGREE OF FREEDOM 4 IS NOT ACTIVE ON NODE 841 INSTANCE 
             TISSUE_15MM-1 - THIS BOUNDARY CONDITION IS IGNORED

 ***WARNING: DEGREE OF FREEDOM 5 IS NOT ACTIVE ON NODE 841 INSTANCE 
             TISSUE_15MM-1 - THIS BOUNDARY CONDITION IS IGNORED

 ***WARNING: DEGREE OF FREEDOM 6 IS NOT ACTIVE ON NODE 841 INSTANCE 
             TISSUE_15MM-1 - THIS BOUNDARY CONDITION IS IGNORED

 ***WARNING: DEGREE OF FREEDOM 4 IS NOT ACTIVE ON NODE 842 INSTANCE 
             TISSUE_15MM-1 - THIS BOUNDARY CONDITION IS IGNORED

 ***WARNING: DEGREE OF FREEDOM 5 IS NOT ACTIVE ON NODE 842 INSTANCE 
             TISSUE_15MM-1 - THIS BOUNDARY CONDITION IS IGNORED

 ***WARNING: DEGREE OF FREEDOM 6 IS NOT ACTIVE ON NODE 842 INSTANCE 
             TISSUE_15MM-1 - THIS BOUNDARY CONDITION IS IGNORED

 ***WARNING: DEGREE OF FREEDOM 4 IS NOT ACTIVE ON NODE 843 INSTANCE 
             TISSUE_15MM-1 - THIS BOUNDARY CONDITION IS IGNORED

 ***WARNING: DEGREE OF FREEDOM 5 IS NOT ACTIVE ON NODE 843 INSTANCE 
             TISSUE_15MM-1 - THIS BOUNDARY CONDITION IS IGNORED

 ***WARNING: DEGREE OF FREEDOM 6 IS NOT ACTIVE ON NODE 843 INSTANCE 
             TISSUE_15MM-1 - THIS BOUNDARY CONDITION IS IGNORED

 ***WARNING: DEGREE OF FREEDOM 4 IS NOT ACTIVE ON NODE 844 INSTANCE 
             TISSUE_15MM-1 - THIS BOUNDARY CONDITION IS IGNORED

 ***WARNING: DEGREE OF FREEDOM 5 IS NOT ACTIVE ON NODE 844 INSTANCE 
             TISSUE_15MM-1 - THIS BOUNDARY CONDITION IS IGNORED

 ***WARNING: DEGREE OF FREEDOM 6 IS NOT ACTIVE ON NODE 844 INSTANCE 
             TISSUE_15MM-1 - THIS BOUNDARY CONDITION IS IGNORED

 ***WARNING: DEGREE OF FREEDOM 4 IS NOT ACTIVE ON NODE 845 INSTANCE 
             TISSUE_15MM-1 - THIS BOUNDARY CONDITION IS IGNORED

 ***WARNING: DEGREE OF FREEDOM 5 IS NOT ACTIVE ON NODE 845 INSTANCE 
             TISSUE_15MM-1 - THIS BOUNDARY CONDITION IS IGNORED

 ***WARNING: DEGREE OF FREEDOM 6 IS NOT ACTIVE ON NODE 845 INSTANCE 
             TISSUE_15MM-1 - THIS BOUNDARY CONDITION IS IGNORED

 ***WARNING: DEGREE OF FREEDOM 4 IS NOT ACTIVE ON NODE 846 INSTANCE 
             TISSUE_15MM-1 - THIS BOUNDARY CONDITION IS IGNORED

 ***WARNING: DEGREE OF FREEDOM 5 IS NOT ACTIVE ON NODE 846 INSTANCE 
             TISSUE_15MM-1 - THIS BOUNDARY CONDITION IS IGNORED

 ***WARNING: DEGREE OF FREEDOM 6 IS NOT ACTIVE ON NODE 846 INSTANCE 
             TISSUE_15MM-1 - THIS BOUNDARY CONDITION IS IGNORED

 ***WARNING: DEGREE OF FREEDOM 4 IS NOT ACTIVE ON NODE 847 INSTANCE 
             TISSUE_15MM-1 - THIS BOUNDARY CONDITION IS IGNORED

 ***WARNING: DEGREE OF FREEDOM 5 IS NOT ACTIVE ON NODE 847 INSTANCE 
             TISSUE_15MM-1 - THIS BOUNDARY CONDITION IS IGNORED

 ***WARNING: DEGREE OF FREEDOM 6 IS NOT ACTIVE ON NODE 847 INSTANCE 
             TISSUE_15MM-1 - THIS BOUNDARY CONDITION IS IGNORED

 ***WARNING: DEGREE OF FREEDOM 4 IS NOT ACTIVE ON NODE 848 INSTANCE 
             TISSUE_15MM-1 - THIS BOUNDARY CONDITION IS IGNORED

 ***WARNING: DEGREE OF FREEDOM 5 IS NOT ACTIVE ON NODE 848 INSTANCE 
             TISSUE_15MM-1 - THIS BOUNDARY CONDITION IS IGNORED

 ***WARNING: DEGREE OF FREEDOM 6 IS NOT ACTIVE ON NODE 848 INSTANCE 
             TISSUE_15MM-1 - THIS BOUNDARY CONDITION IS IGNORED

 ***WARNING: DEGREE OF FREEDOM 4 IS NOT ACTIVE ON NODE 849 INSTANCE 
             TISSUE_15MM-1 - THIS BOUNDARY CONDITION IS IGNORED

 ***WARNING: DEGREE OF FREEDOM 5 IS NOT ACTIVE ON NODE 849 INSTANCE 
             TISSUE_15MM-1 - THIS BOUNDARY CONDITION IS IGNORED

 ***WARNING: DEGREE OF FREEDOM 6 IS NOT ACTIVE ON NODE 849 INSTANCE 
             TISSUE_15MM-1 - THIS BOUNDARY CONDITION IS IGNORED

 ***WARNING: DEGREE OF FREEDOM 4 IS NOT ACTIVE ON NODE 850 INSTANCE 
             TISSUE_15MM-1 - THIS BOUNDARY CONDITION IS IGNORED

 ***WARNING: DEGREE OF FREEDOM 5 IS NOT ACTIVE ON NODE 850 INSTANCE 
             TISSUE_15MM-1 - THIS BOUNDARY CONDITION IS IGNORED

 ***WARNING: DEGREE OF FREEDOM 6 IS NOT ACTIVE ON NODE 850 INSTANCE 
             TISSUE_15MM-1 - THIS BOUNDARY CONDITION IS IGNORED

 ***WARNING: DEGREE OF FREEDOM 4 IS NOT ACTIVE ON NODE 851 INSTANCE 
             TISSUE_15MM-1 - THIS BOUNDARY CONDITION IS IGNORED

 ***WARNING: DEGREE OF FREEDOM 5 IS NOT ACTIVE ON NODE 851 INSTANCE 
             TISSUE_15MM-1 - THIS BOUNDARY CONDITION IS IGNORED

 ***WARNING: DEGREE OF FREEDOM 6 IS NOT ACTIVE ON NODE 851 INSTANCE 
             TISSUE_15MM-1 - THIS BOUNDARY CONDITION IS IGNORED

 ***WARNING: DEGREE OF FREEDOM 4 IS NOT ACTIVE ON NODE 852 INSTANCE 
             TISSUE_15MM-1 - THIS BOUNDARY CONDITION IS IGNORED

 ***WARNING: DEGREE OF FREEDOM 5 IS NOT ACTIVE ON NODE 852 INSTANCE 
             TISSUE_15MM-1 - THIS BOUNDARY CONDITION IS IGNORED

 ***WARNING: DEGREE OF FREEDOM 6 IS NOT ACTIVE ON NODE 852 INSTANCE 
             TISSUE_15MM-1 - THIS BOUNDARY CONDITION IS IGNORED

 ***WARNING: DEGREE OF FREEDOM 4 IS NOT ACTIVE ON NODE 853 INSTANCE 
             TISSUE_15MM-1 - THIS BOUNDARY CONDITION IS IGNORED

 ***WARNING: DEGREE OF FREEDOM 5 IS NOT ACTIVE ON NODE 853 INSTANCE 
             TISSUE_15MM-1 - THIS BOUNDARY CONDITION IS IGNORED

 ***WARNING: DEGREE OF FREEDOM 6 IS NOT ACTIVE ON NODE 853 INSTANCE 
             TISSUE_15MM-1 - THIS BOUNDARY CONDITION IS IGNORED

 ***WARNING: DEGREE OF FREEDOM 4 IS NOT ACTIVE ON NODE 854 INSTANCE 
             TISSUE_15MM-1 - THIS BOUNDARY CONDITION IS IGNORED

 ***WARNING: DEGREE OF FREEDOM 5 IS NOT ACTIVE ON NODE 854 INSTANCE 
             TISSUE_15MM-1 - THIS BOUNDARY CONDITION IS IGNORED

 ***WARNING: DEGREE OF FREEDOM 6 IS NOT ACTIVE ON NODE 854 INSTANCE 
             TISSUE_15MM-1 - THIS BOUNDARY CONDITION IS IGNORED

 ***WARNING: DEGREE OF FREEDOM 4 IS NOT ACTIVE ON NODE 855 INSTANCE 
             TISSUE_15MM-1 - THIS BOUNDARY CONDITION IS IGNORED

 ***WARNING: DEGREE OF FREEDOM 5 IS NOT ACTIVE ON NODE 855 INSTANCE 
             TISSUE_15MM-1 - THIS BOUNDARY CONDITION IS IGNORED

 ***WARNING: DEGREE OF FREEDOM 6 IS NOT ACTIVE ON NODE 855 INSTANCE 
             TISSUE_15MM-1 - THIS BOUNDARY CONDITION IS IGNORED

 ***WARNING: DEGREE OF FREEDOM 4 IS NOT ACTIVE ON NODE 1054 INSTANCE 
             TISSUE_15MM-1 - THIS BOUNDARY CONDITION IS IGNORED

 ***WARNING: DEGREE OF FREEDOM 5 IS NOT ACTIVE ON NODE 1054 INSTANCE 
             TISSUE_15MM-1 - THIS BOUNDARY CONDITION IS IGNORED

 ***WARNING: DEGREE OF FREEDOM 6 IS NOT ACTIVE ON NODE 1054 INSTANCE 
             TISSUE_15MM-1 - THIS BOUNDARY CONDITION IS IGNORED

 ***WARNING: DEGREE OF FREEDOM 4 IS NOT ACTIVE ON NODE 1055 INSTANCE 
             TISSUE_15MM-1 - THIS BOUNDARY CONDITION IS IGNORED

 ***WARNING: DEGREE OF FREEDOM 5 IS NOT ACTIVE ON NODE 1055 INSTANCE 
             TISSUE_15MM-1 - THIS BOUNDARY CONDITION IS IGNORED

 ***WARNING: DEGREE OF FREEDOM 6 IS NOT ACTIVE ON NODE 1055 INSTANCE 
             TISSUE_15MM-1 - THIS BOUNDARY CONDITION IS IGNORED

 ***WARNING: DEGREE OF FREEDOM 4 IS NOT ACTIVE ON NODE 1056 INSTANCE 
             TISSUE_15MM-1 - THIS BOUNDARY CONDITION IS IGNORED

 ***WARNING: DEGREE OF FREEDOM 5 IS NOT ACTIVE ON NODE 1056 INSTANCE 
             TISSUE_15MM-1 - THIS BOUNDARY CONDITION IS IGNORED

 ***WARNING: DEGREE OF FREEDOM 6 IS NOT ACTIVE ON NODE 1056 INSTANCE 
             TISSUE_15MM-1 - THIS BOUNDARY CONDITION IS IGNORED

 ***WARNING: DEGREE OF FREEDOM 4 IS NOT ACTIVE ON NODE 1057 INSTANCE 
             TISSUE_15MM-1 - THIS BOUNDARY CONDITION IS IGNORED

 ***WARNING: DEGREE OF FREEDOM 5 IS NOT ACTIVE ON NODE 1057 INSTANCE 
             TISSUE_15MM-1 - THIS BOUNDARY CONDITION IS IGNORED

 ***WARNING: DEGREE OF FREEDOM 6 IS NOT ACTIVE ON NODE 1057 INSTANCE 
             TISSUE_15MM-1 - THIS BOUNDARY CONDITION IS IGNORED

 ***WARNING: DEGREE OF FREEDOM 4 IS NOT ACTIVE ON NODE 1058 INSTANCE 
             TISSUE_15MM-1 - THIS BOUNDARY CONDITION IS IGNORED

 ***WARNING: DEGREE OF FREEDOM 5 IS NOT ACTIVE ON NODE 1058 INSTANCE 
             TISSUE_15MM-1 - THIS BOUNDARY CONDITION IS IGNORED

 ***WARNING: DEGREE OF FREEDOM 6 IS NOT ACTIVE ON NODE 1058 INSTANCE 
             TISSUE_15MM-1 - THIS BOUNDARY CONDITION IS IGNORED

 ***WARNING: DEGREE OF FREEDOM 4 IS NOT ACTIVE ON NODE 1059 INSTANCE 
             TISSUE_15MM-1 - THIS BOUNDARY CONDITION IS IGNORED

 ***WARNING: DEGREE OF FREEDOM 5 IS NOT ACTIVE ON NODE 1059 INSTANCE 
             TISSUE_15MM-1 - THIS BOUNDARY CONDITION IS IGNORED

 ***WARNING: DEGREE OF FREEDOM 6 IS NOT ACTIVE ON NODE 1059 INSTANCE 
             TISSUE_15MM-1 - THIS BOUNDARY CONDITION IS IGNORED

 ***WARNING: DEGREE OF FREEDOM 4 IS NOT ACTIVE ON NODE 1060 INSTANCE 
             TISSUE_15MM-1 - THIS BOUNDARY CONDITION IS IGNORED

 ***WARNING: DEGREE OF FREEDOM 5 IS NOT ACTIVE ON NODE 1060 INSTANCE 
             TISSUE_15MM-1 - THIS BOUNDARY CONDITION IS IGNORED

 ***WARNING: DEGREE OF FREEDOM 6 IS NOT ACTIVE ON NODE 1060 INSTANCE 
             TISSUE_15MM-1 - THIS BOUNDARY CONDITION IS IGNORED

 ***WARNING: DEGREE OF FREEDOM 4 IS NOT ACTIVE ON NODE 1061 INSTANCE 
             TISSUE_15MM-1 - THIS BOUNDARY CONDITION IS IGNORED

 ***WARNING: DEGREE OF FREEDOM 5 IS NOT ACTIVE ON NODE 1061 INSTANCE 
             TISSUE_15MM-1 - THIS BOUNDARY CONDITION IS IGNORED

 ***WARNING: DEGREE OF FREEDOM 6 IS NOT ACTIVE ON NODE 1061 INSTANCE 
             TISSUE_15MM-1 - THIS BOUNDARY CONDITION IS IGNORED

 ***WARNING: DEGREE OF FREEDOM 4 IS NOT ACTIVE ON NODE 1062 INSTANCE 
             TISSUE_15MM-1 - THIS BOUNDARY CONDITION IS IGNORED

 ***WARNING: DEGREE OF FREEDOM 5 IS NOT ACTIVE ON NODE 1062 INSTANCE 
             TISSUE_15MM-1 - THIS BOUNDARY CONDITION IS IGNORED

 ***WARNING: DEGREE OF FREEDOM 6 IS NOT ACTIVE ON NODE 1062 INSTANCE 
             TISSUE_15MM-1 - THIS BOUNDARY CONDITION IS IGNORED

 ***WARNING: DEGREE OF FREEDOM 4 IS NOT ACTIVE ON NODE 1063 INSTANCE 
             TISSUE_15MM-1 - THIS BOUNDARY CONDITION IS IGNORED

 ***WARNING: DEGREE OF FREEDOM 5 IS NOT ACTIVE ON NODE 1063 INSTANCE 
             TISSUE_15MM-1 - THIS BOUNDARY CONDITION IS IGNORED

 ***WARNING: DEGREE OF FREEDOM 6 IS NOT ACTIVE ON NODE 1063 INSTANCE 
             TISSUE_15MM-1 - THIS BOUNDARY CONDITION IS IGNORED

 ***WARNING: DEGREE OF FREEDOM 4 IS NOT ACTIVE ON NODE 1064 INSTANCE 
             TISSUE_15MM-1 - THIS BOUNDARY CONDITION IS IGNORED

 ***WARNING: DEGREE OF FREEDOM 5 IS NOT ACTIVE ON NODE 1064 INSTANCE 
             TISSUE_15MM-1 - THIS BOUNDARY CONDITION IS IGNORED

 ***WARNING: DEGREE OF FREEDOM 6 IS NOT ACTIVE ON NODE 1064 INSTANCE 
             TISSUE_15MM-1 - THIS BOUNDARY CONDITION IS IGNORED

 ***WARNING: DEGREE OF FREEDOM 4 IS NOT ACTIVE ON NODE 1065 INSTANCE 
             TISSUE_15MM-1 - THIS BOUNDARY CONDITION IS IGNORED

 ***WARNING: DEGREE OF FREEDOM 5 IS NOT ACTIVE ON NODE 1065 INSTANCE 
             TISSUE_15MM-1 - THIS BOUNDARY CONDITION IS IGNORED

 ***WARNING: DEGREE OF FREEDOM 6 IS NOT ACTIVE ON NODE 1065 INSTANCE 
             TISSUE_15MM-1 - THIS BOUNDARY CONDITION IS IGNORED

 ***WARNING: DEGREE OF FREEDOM 4 IS NOT ACTIVE ON NODE 1066 INSTANCE 
             TISSUE_15MM-1 - THIS BOUNDARY CONDITION IS IGNORED

 ***WARNING: DEGREE OF FREEDOM 5 IS NOT ACTIVE ON NODE 1066 INSTANCE 
             TISSUE_15MM-1 - THIS BOUNDARY CONDITION IS IGNORED

 ***WARNING: DEGREE OF FREEDOM 6 IS NOT ACTIVE ON NODE 1066 INSTANCE 
             TISSUE_15MM-1 - THIS BOUNDARY CONDITION IS IGNORED

 ***WARNING: DEGREE OF FREEDOM 4 IS NOT ACTIVE ON NODE 1067 INSTANCE 
             TISSUE_15MM-1 - THIS BOUNDARY CONDITION IS IGNORED

 ***WARNING: DEGREE OF FREEDOM 5 IS NOT ACTIVE ON NODE 1067 INSTANCE 
             TISSUE_15MM-1 - THIS BOUNDARY CONDITION IS IGNORED

 ***WARNING: DEGREE OF FREEDOM 6 IS NOT ACTIVE ON NODE 1067 INSTANCE 
             TISSUE_15MM-1 - THIS BOUNDARY CONDITION IS IGNORED

 ***WARNING: DEGREE OF FREEDOM 4 IS NOT ACTIVE ON NODE 1068 INSTANCE 
             TISSUE_15MM-1 - THIS BOUNDARY CONDITION IS IGNORED

 ***WARNING: DEGREE OF FREEDOM 5 IS NOT ACTIVE ON NODE 1068 INSTANCE 
             TISSUE_15MM-1 - THIS BOUNDARY CONDITION IS IGNORED

 ***WARNING: DEGREE OF FREEDOM 6 IS NOT ACTIVE ON NODE 1068 INSTANCE 
             TISSUE_15MM-1 - THIS BOUNDARY CONDITION IS IGNORED

 ***WARNING: DEGREE OF FREEDOM 4 IS NOT ACTIVE ON NODE 1069 INSTANCE 
             TISSUE_15MM-1 - THIS BOUNDARY CONDITION IS IGNORED

[...]

 ***WARNING: DEGREE OF FREEDOM 6 IS NOT ACTIVE ON NODE 1582 INSTANCE 
             TISSUE_15MM-1 - THIS BOUNDARY CONDITION IS IGNORED

 ***WARNING: DEGREE OF FREEDOM 4 IS NOT ACTIVE ON NODE 1583 INSTANCE 
             TISSUE_15MM-1 - THIS BOUNDARY CONDITION IS IGNORED

 ***WARNING: DEGREE OF FREEDOM 5 IS NOT ACTIVE ON NODE 1583 INSTANCE 
             TISSUE_15MM-1 - THIS BOUNDARY CONDITION IS IGNORED

 ***WARNING: DEGREE OF FREEDOM 6 IS NOT ACTIVE ON NODE 1583 INSTANCE 
             TISSUE_15MM-1 - THIS BOUNDARY CONDITION IS IGNORED

 ***WARNING: DEGREE OF FREEDOM 4 IS NOT ACTIVE ON NODE 1940 INSTANCE 
             TISSUE_15MM-1 - THIS BOUNDARY CONDITION IS IGNORED

 ***WARNING: DEGREE OF FREEDOM 5 IS NOT ACTIVE ON NODE 1940 INSTANCE 
             TISSUE_15MM-1 - THIS BOUNDARY CONDITION IS IGNORED

 ***WARNING: DEGREE OF FREEDOM 6 IS NOT ACTIVE ON NODE 1940 INSTANCE 
             TISSUE_15MM-1 - THIS BOUNDARY CONDITION IS IGNORED

 ***WARNING: DEGREE OF FREEDOM 4 IS NOT ACTIVE ON NODE 1941 INSTANCE 
             TISSUE_15MM-1 - THIS BOUNDARY CONDITION IS IGNORED

 ***WARNING: DEGREE OF FREEDOM 5 IS NOT ACTIVE ON NODE 1941 INSTANCE 
             TISSUE_15MM-1 - THIS BOUNDARY CONDITION IS IGNORED

 ***WARNING: DEGREE OF FREEDOM 6 IS NOT ACTIVE ON NODE 1941 INSTANCE 
             TISSUE_15MM-1 - THIS BOUNDARY CONDITION IS IGNORED

 ***WARNING: DEGREE OF FREEDOM 4 IS NOT ACTIVE ON NODE 1942 INSTANCE 
             TISSUE_15MM-1 - THIS BOUNDARY CONDITION IS IGNORED

 ***WARNING: DEGREE OF FREEDOM 5 IS NOT ACTIVE ON NODE 1942 INSTANCE 
             TISSUE_15MM-1 - THIS BOUNDARY CONDITION IS IGNORED

 ***WARNING: DEGREE OF FREEDOM 6 IS NOT ACTIVE ON NODE 1942 INSTANCE 
             TISSUE_15MM-1 - THIS BOUNDARY CONDITION IS IGNORED

 ***WARNING: DEGREE OF FREEDOM 4 IS NOT ACTIVE ON NODE 1943 INSTANCE 
             TISSUE_15MM-1 - THIS BOUNDARY CONDITION IS IGNORED

 ***WARNING: DEGREE OF FREEDOM 5 IS NOT ACTIVE ON NODE 1943 INSTANCE 
             TISSUE_15MM-1 - THIS BOUNDARY CONDITION IS IGNORED

 ***WARNING: DEGREE OF FREEDOM 6 IS NOT ACTIVE ON NODE 1943 INSTANCE 
             TISSUE_15MM-1 - THIS BOUNDARY CONDITION IS IGNORED

 ***WARNING: DEGREE OF FREEDOM 4 IS NOT ACTIVE ON NODE 1944 INSTANCE 
             TISSUE_15MM-1 - THIS BOUNDARY CONDITION IS IGNORED

 ***WARNING: DEGREE OF FREEDOM 5 IS NOT ACTIVE ON NODE 1944 INSTANCE 
             TISSUE_15MM-1 - THIS BOUNDARY CONDITION IS IGNORED

 ***WARNING: DEGREE OF FREEDOM 6 IS NOT ACTIVE ON NODE 1944 INSTANCE 
             TISSUE_15MM-1 - THIS BOUNDARY CONDITION IS IGNORED

 ***WARNING: DEGREE OF FREEDOM 4 IS NOT ACTIVE ON NODE 1945 INSTANCE 
             TISSUE_15MM-1 - THIS BOUNDARY CONDITION IS IGNORED

 ***WARNING: DEGREE OF FREEDOM 5 IS NOT ACTIVE ON NODE 1945 INSTANCE 
             TISSUE_15MM-1 - THIS BOUNDARY CONDITION IS IGNORED

 ***WARNING: DEGREE OF FREEDOM 6 IS NOT ACTIVE ON NODE 1945 INSTANCE 
             TISSUE_15MM-1 - THIS BOUNDARY CONDITION IS IGNORED

 ***WARNING: DEGREE OF FREEDOM 4 IS NOT ACTIVE ON NODE 1946 INSTANCE 
             TISSUE_15MM-1 - THIS BOUNDARY CONDITION IS IGNORED

 ***WARNING: DEGREE OF FREEDOM 5 IS NOT ACTIVE ON NODE 1946 INSTANCE 
             TISSUE_15MM-1 - THIS BOUNDARY CONDITION IS IGNORED

 ***WARNING: DEGREE OF FREEDOM 6 IS NOT ACTIVE ON NODE 1946 INSTANCE 
             TISSUE_15MM-1 - THIS BOUNDARY CONDITION IS IGNORED

 ***WARNING: DEGREE OF FREEDOM 4 IS NOT ACTIVE ON NODE 1947 INSTANCE 
             TISSUE_15MM-1 - THIS BOUNDARY CONDITION IS IGNORED

 ***WARNING: DEGREE OF FREEDOM 5 IS NOT ACTIVE ON NODE 1947 INSTANCE 
             TISSUE_15MM-1 - THIS BOUNDARY CONDITION IS IGNORED

 ***WARNING: DEGREE OF FREEDOM 6 IS NOT ACTIVE ON NODE 1947 INSTANCE 
             TISSUE_15MM-1 - THIS BOUNDARY CONDITION IS IGNORED

 ***WARNING: DEGREE OF FREEDOM 4 IS NOT ACTIVE ON NODE 1948 INSTANCE 
             TISSUE_15MM-1 - THIS BOUNDARY CONDITION IS IGNORED

 ***WARNING: DEGREE OF FREEDOM 5 IS NOT ACTIVE ON NODE 1948 INSTANCE 
             TISSUE_15MM-1 - THIS BOUNDARY CONDITION IS IGNORED

 ***WARNING: DEGREE OF FREEDOM 6 IS NOT ACTIVE ON NODE 1948 INSTANCE 
             TISSUE_15MM-1 - THIS BOUNDARY CONDITION IS IGNORED

 ***WARNING: DEGREE OF FREEDOM 4 IS NOT ACTIVE ON NODE 1949 INSTANCE 
             TISSUE_15MM-1 - THIS BOUNDARY CONDITION IS IGNORED

 ***WARNING: DEGREE OF FREEDOM 5 IS NOT ACTIVE ON NODE 1949 INSTANCE 
             TISSUE_15MM-1 - THIS BOUNDARY CONDITION IS IGNORED

 ***WARNING: DEGREE OF FREEDOM 6 IS NOT ACTIVE ON NODE 1949 INSTANCE 
             TISSUE_15MM-1 - THIS BOUNDARY CONDITION IS IGNORED

 ***WARNING: DEGREE OF FREEDOM 4 IS NOT ACTIVE ON NODE 1950 INSTANCE 
             TISSUE_15MM-1 - THIS BOUNDARY CONDITION IS IGNORED

 ***WARNING: DEGREE OF FREEDOM 5 IS NOT ACTIVE ON NODE 1950 INSTANCE 
             TISSUE_15MM-1 - THIS BOUNDARY CONDITION IS IGNORED

 ***WARNING: DEGREE OF FREEDOM 6 IS NOT ACTIVE ON NODE 1950 INSTANCE 
             TISSUE_15MM-1 - THIS BOUNDARY CONDITION IS IGNORED

 ***WARNING: DEGREE OF FREEDOM 4 IS NOT ACTIVE ON NODE 1951 INSTANCE 
             TISSUE_15MM-1 - THIS BOUNDARY CONDITION IS IGNORED

 ***WARNING: DEGREE OF FREEDOM 5 IS NOT ACTIVE ON NODE 1951 INSTANCE 
             TISSUE_15MM-1 - THIS BOUNDARY CONDITION IS IGNORED

 ***WARNING: DEGREE OF FREEDOM 6 IS NOT ACTIVE ON NODE 1951 INSTANCE 
             TISSUE_15MM-1 - THIS BOUNDARY CONDITION IS IGNORED

 ***WARNING: DEGREE OF FREEDOM 4 IS NOT ACTIVE ON NODE 1952 INSTANCE 
             TISSUE_15MM-1 - THIS BOUNDARY CONDITION IS IGNORED

 ***WARNING: DEGREE OF FREEDOM 5 IS NOT ACTIVE ON NODE 1952 INSTANCE 
             TISSUE_15MM-1 - THIS BOUNDARY CONDITION IS IGNORED

 ***WARNING: DEGREE OF FREEDOM 6 IS NOT ACTIVE ON NODE 1952 INSTANCE 
             TISSUE_15MM-1 - THIS BOUNDARY CONDITION IS IGNORED

 ***WARNING: DEGREE OF FREEDOM 4 IS NOT ACTIVE ON NODE 1953 INSTANCE 
             TISSUE_15MM-1 - THIS BOUNDARY CONDITION IS IGNORED

 ***WARNING: DEGREE OF FREEDOM 5 IS NOT ACTIVE ON NODE 1953 INSTANCE 
             TISSUE_15MM-1 - THIS BOUNDARY CONDITION IS IGNORED

 ***WARNING: DEGREE OF FREEDOM 6 IS NOT ACTIVE ON NODE 1953 INSTANCE 
             TISSUE_15MM-1 - THIS BOUNDARY CONDITION IS IGNORED

 ***WARNING: DEGREE OF FREEDOM 4 IS NOT ACTIVE ON NODE 1954 INSTANCE 
             TISSUE_15MM-1 - THIS BOUNDARY CONDITION IS IGNORED

 ***WARNING: DEGREE OF FREEDOM 5 IS NOT ACTIVE ON NODE 1954 INSTANCE 
             TISSUE_15MM-1 - THIS BOUNDARY CONDITION IS IGNORED

 ***WARNING: DEGREE OF FREEDOM 6 IS NOT ACTIVE ON NODE 1954 INSTANCE 
             TISSUE_15MM-1 - THIS BOUNDARY CONDITION IS IGNORED

 ***WARNING: DEGREE OF FREEDOM 4 IS NOT ACTIVE ON NODE 1955 INSTANCE 
             TISSUE_15MM-1 - THIS BOUNDARY CONDITION IS IGNORED

 ***WARNING: DEGREE OF FREEDOM 5 IS NOT ACTIVE ON NODE 1955 INSTANCE 
             TISSUE_15MM-1 - THIS BOUNDARY CONDITION IS IGNORED

 ***WARNING: DEGREE OF FREEDOM 6 IS NOT ACTIVE ON NODE 1955 INSTANCE 
             TISSUE_15MM-1 - THIS BOUNDARY CONDITION IS IGNORED

 ***WARNING: DEGREE OF FREEDOM 4 IS NOT ACTIVE ON NODE 1956 INSTANCE 
             TISSUE_15MM-1 - THIS BOUNDARY CONDITION IS IGNORED

 ***WARNING: DEGREE OF FREEDOM 5 IS NOT ACTIVE ON NODE 1956 INSTANCE 
             TISSUE_15MM-1 - THIS BOUNDARY CONDITION IS IGNORED

 ***WARNING: DEGREE OF FREEDOM 6 IS NOT ACTIVE ON NODE 1956 INSTANCE 
             TISSUE_15MM-1 - THIS BOUNDARY CONDITION IS IGNORED

 ***WARNING: DEGREE OF FREEDOM 4 IS NOT ACTIVE ON NODE 1957 INSTANCE 
             TISSUE_15MM-1 - THIS BOUNDARY CONDITION IS IGNORED

 ***WARNING: DEGREE OF FREEDOM 5 IS NOT ACTIVE ON NODE 1957 INSTANCE 
             TISSUE_15MM-1 - THIS BOUNDARY CONDITION IS IGNORED

 ***WARNING: DEGREE OF FREEDOM 6 IS NOT ACTIVE ON NODE 1957 INSTANCE 
             TISSUE_15MM-1 - THIS BOUNDARY CONDITION IS IGNORED

 ***WARNING: DEGREE OF FREEDOM 4 IS NOT ACTIVE ON NODE 1958 INSTANCE 
             TISSUE_15MM-1 - THIS BOUNDARY CONDITION IS IGNORED

 ***WARNING: DEGREE OF FREEDOM 5 IS NOT ACTIVE ON NODE 1958 INSTANCE 
             TISSUE_15MM-1 - THIS BOUNDARY CONDITION IS IGNORED

 ***WARNING: DEGREE OF FREEDOM 6 IS NOT ACTIVE ON NODE 1958 INSTANCE 
             TISSUE_15MM-1 - THIS BOUNDARY CONDITION IS IGNORED

 ***WARNING: DEGREE OF FREEDOM 4 IS NOT ACTIVE ON NODE 1959 INSTANCE 
             TISSUE_15MM-1 - THIS BOUNDARY CONDITION IS IGNORED

 ***WARNING: DEGREE OF FREEDOM 5 IS NOT ACTIVE ON NODE 1959 INSTANCE 
             TISSUE_15MM-1 - THIS BOUNDARY CONDITION IS IGNORED

 ***WARNING: DEGREE OF FREEDOM 6 IS NOT ACTIVE ON NODE 1959 INSTANCE 
             TISSUE_15MM-1 - THIS BOUNDARY CONDITION IS IGNORED

 ***WARNING: DEGREE OF FREEDOM 4 IS NOT ACTIVE ON NODE 1960 INSTANCE 
             TISSUE_15MM-1 - THIS BOUNDARY CONDITION IS IGNORED

 ***WARNING: DEGREE OF FREEDOM 5 IS NOT ACTIVE ON NODE 1960 INSTANCE 
             TISSUE_15MM-1 - THIS BOUNDARY CONDITION IS IGNORED

 ***WARNING: DEGREE OF FREEDOM 6 IS NOT ACTIVE ON NODE 1960 INSTANCE 
             TISSUE_15MM-1 - THIS BOUNDARY CONDITION IS IGNORED

 ***WARNING: DEGREE OF FREEDOM 4 IS NOT ACTIVE ON NODE 1961 INSTANCE 
             TISSUE_15MM-1 - THIS BOUNDARY CONDITION IS IGNORED

 ***WARNING: DEGREE OF FREEDOM 5 IS NOT ACTIVE ON NODE 1961 INSTANCE 
             TISSUE_15MM-1 - THIS BOUNDARY CONDITION IS IGNORED

 ***WARNING: DEGREE OF FREEDOM 6 IS NOT ACTIVE ON NODE 1961 INSTANCE 
             TISSUE_15MM-1 - THIS BOUNDARY CONDITION IS IGNORED

 ***WARNING: DEGREE OF FREEDOM 4 IS NOT ACTIVE ON NODE 1962 INSTANCE 
             TISSUE_15MM-1 - THIS BOUNDARY CONDITION IS IGNORED

 ***WARNING: DEGREE OF FREEDOM 5 IS NOT ACTIVE ON NODE 1962 INSTANCE 
             TISSUE_15MM-1 - THIS BOUNDARY CONDITION IS IGNORED

 ***WARNING: DEGREE OF FREEDOM 6 IS NOT ACTIVE ON NODE 1962 INSTANCE 
             TISSUE_15MM-1 - THIS BOUNDARY CONDITION IS IGNORED

 ***WARNING: DEGREE OF FREEDOM 4 IS NOT ACTIVE ON NODE 1963 INSTANCE 
             TISSUE_15MM-1 - THIS BOUNDARY CONDITION IS IGNORED

 ***WARNING: DEGREE OF FREEDOM 5 IS NOT ACTIVE ON NODE 1963 INSTANCE 
             TISSUE_15MM-1 - THIS BOUNDARY CONDITION IS IGNORED

 ***WARNING: DEGREE OF FREEDOM 6 IS NOT ACTIVE ON NODE 1963 INSTANCE 
             TISSUE_15MM-1 - THIS BOUNDARY CONDITION IS IGNORED

 ***WARNING: DEGREE OF FREEDOM 4 IS NOT ACTIVE ON NODE 1964 INSTANCE 
             TISSUE_15MM-1 - THIS BOUNDARY CONDITION IS IGNORED

 ***WARNING: DEGREE OF FREEDOM 5 IS NOT ACTIVE ON NODE 1964 INSTANCE 
             TISSUE_15MM-1 - THIS BOUNDARY CONDITION IS IGNORED

 ***WARNING: DEGREE OF FREEDOM 6 IS NOT ACTIVE ON NODE 1964 INSTANCE 
             TISSUE_15MM-1 - THIS BOUNDARY CONDITION IS IGNORED

 ***WARNING: DEGREE OF FREEDOM 4 IS NOT ACTIVE ON NODE 1965 INSTANCE 
             TISSUE_15MM-1 - THIS BOUNDARY CONDITION IS IGNORED

 ***WARNING: DEGREE OF FREEDOM 5 IS NOT ACTIVE ON NODE 1965 INSTANCE 
             TISSUE_15MM-1 - THIS BOUNDARY CONDITION IS IGNORED

 ***WARNING: DEGREE OF FREEDOM 6 IS NOT ACTIVE ON NODE 1965 INSTANCE 
             TISSUE_15MM-1 - THIS BOUNDARY CONDITION IS IGNORED

 ***WARNING: DEGREE OF FREEDOM 4 IS NOT ACTIVE ON NODE 1966 INSTANCE 
             TISSUE_15MM-1 - THIS BOUNDARY CONDITION IS IGNORED

 ***WARNING: DEGREE OF FREEDOM 5 IS NOT ACTIVE ON NODE 1966 INSTANCE 
             TISSUE_15MM-1 - THIS BOUNDARY CONDITION IS IGNORED

 ***WARNING: DEGREE OF FREEDOM 6 IS NOT ACTIVE ON NODE 1966 INSTANCE 
             TISSUE_15MM-1 - THIS BOUNDARY CONDITION IS IGNORED

 ***WARNING: DEGREE OF FREEDOM 4 IS NOT ACTIVE ON NODE 1967 INSTANCE 
             TISSUE_15MM-1 - THIS BOUNDARY CONDITION IS IGNORED

 ***WARNING: DEGREE OF FREEDOM 5 IS NOT ACTIVE ON NODE 1967 INSTANCE 
             TISSUE_15MM-1 - THIS BOUNDARY CONDITION IS IGNORED

 ***WARNING: DEGREE OF FREEDOM 6 IS NOT ACTIVE ON NODE 1967 INSTANCE 
             TISSUE_15MM-1 - THIS BOUNDARY CONDITION IS IGNORED

 ***WARNING: DEGREE OF FREEDOM 4 IS NOT ACTIVE ON NODE 1968 INSTANCE 
             TISSUE_15MM-1 - THIS BOUNDARY CONDITION IS IGNORED

 ***WARNING: DEGREE OF FREEDOM 5 IS NOT ACTIVE ON NODE 1968 INSTANCE 
             TISSUE_15MM-1 - THIS BOUNDARY CONDITION IS IGNORED

 ***WARNING: DEGREE OF FREEDOM 6 IS NOT ACTIVE ON NODE 1968 INSTANCE 
             TISSUE_15MM-1 - THIS BOUNDARY CONDITION IS IGNORED

 ***WARNING: DEGREE OF FREEDOM 4 IS NOT ACTIVE ON NODE 1969 INSTANCE 
             TISSUE_15MM-1 - THIS BOUNDARY CONDITION IS IGNORED

 ***WARNING: DEGREE OF FREEDOM 5 IS NOT ACTIVE ON NODE 1969 INSTANCE 
             TISSUE_15MM-1 - THIS BOUNDARY CONDITION IS IGNORED

 ***WARNING: DEGREE OF FREEDOM 6 IS NOT ACTIVE ON NODE 1969 INSTANCE 
             TISSUE_15MM-1 - THIS BOUNDARY CONDITION IS IGNORED

 ***WARNING: DEGREE OF FREEDOM 4 IS NOT ACTIVE ON NODE 1970 INSTANCE 
             TISSUE_15MM-1 - THIS BOUNDARY CONDITION IS IGNORED

 ***WARNING: DEGREE OF FREEDOM 5 IS NOT ACTIVE ON NODE 1970 INSTANCE 
             TISSUE_15MM-1 - THIS BOUNDARY CONDITION IS IGNORED

 ***WARNING: DEGREE OF FREEDOM 6 IS NOT ACTIVE ON NODE 1970 INSTANCE 
             TISSUE_15MM-1 - THIS BOUNDARY CONDITION IS IGNORED

 ***WARNING: DEGREE OF FREEDOM 4 IS NOT ACTIVE ON NODE 1971 INSTANCE 
             TISSUE_15MM-1 - THIS BOUNDARY CONDITION IS IGNORED

 ***WARNING: DEGREE OF FREEDOM 5 IS NOT ACTIVE ON NODE 1971 INSTANCE 
             TISSUE_15MM-1 - THIS BOUNDARY CONDITION IS IGNORED

 ***WARNING: DEGREE OF FREEDOM 6 IS NOT ACTIVE ON NODE 1971 INSTANCE 
             TISSUE_15MM-1 - THIS BOUNDARY CONDITION IS IGNORED

 ***WARNING: DEGREE OF FREEDOM 4 IS NOT ACTIVE ON NODE 1972 INSTANCE 
             TISSUE_15MM-1 - THIS BOUNDARY CONDITION IS IGNORED

 ***WARNING: DEGREE OF FREEDOM 5 IS NOT ACTIVE ON NODE 1972 INSTANCE 
             TISSUE_15MM-1 - THIS BOUNDARY CONDITION IS IGNORED

 ***WARNING: DEGREE OF FREEDOM 6 IS NOT ACTIVE ON NODE 1972 INSTANCE 
             TISSUE_15MM-1 - THIS BOUNDARY CONDITION IS IGNORED

 ***WARNING: DEGREE OF FREEDOM 4 IS NOT ACTIVE ON NODE 1973 INSTANCE 
             TISSUE_15MM-1 - THIS BOUNDARY CONDITION IS IGNORED

 ***WARNING: DEGREE OF FREEDOM 5 IS NOT ACTIVE ON NODE 1973 INSTANCE 
             TISSUE_15MM-1 - THIS BOUNDARY CONDITION IS IGNORED

 ***WARNING: DEGREE OF FREEDOM 6 IS NOT ACTIVE ON NODE 1973 INSTANCE 
             TISSUE_15MM-1 - THIS BOUNDARY CONDITION IS IGNORED

 ***WARNING: DEGREE OF FREEDOM 4 IS NOT ACTIVE ON NODE 1974 INSTANCE 
             TISSUE_15MM-1 - THIS BOUNDARY CONDITION IS IGNORED

 ***WARNING: DEGREE OF FREEDOM 5 IS NOT ACTIVE ON NODE 1974 INSTANCE 
             TISSUE_15MM-1 - THIS BOUNDARY CONDITION IS IGNORED

 ***WARNING: DEGREE OF FREEDOM 6 IS NOT ACTIVE ON NODE 1974 INSTANCE 
             TISSUE_15MM-1 - THIS BOUNDARY CONDITION IS IGNORED

 ***WARNING: DEGREE OF FREEDOM 4 IS NOT ACTIVE ON NODE 1975 INSTANCE 
             TISSUE_15MM-1 - THIS BOUNDARY CONDITION IS IGNORED

 ***WARNING: DEGREE OF FREEDOM 5 IS NOT ACTIVE ON NODE 1975 INSTANCE 
             TISSUE_15MM-1 - THIS BOUNDARY CONDITION IS IGNORED

 ***WARNING: DEGREE OF FREEDOM 6 IS NOT ACTIVE ON NODE 1975 INSTANCE 
             TISSUE_15MM-1 - THIS BOUNDARY CONDITION IS IGNORED

 ***WARNING: DEGREE OF FREEDOM 4 IS NOT ACTIVE ON NODE 1976 INSTANCE 
             TISSUE_15MM-1 - THIS BOUNDARY CONDITION IS IGNORED

 ***WARNING: DEGREE OF FREEDOM 5 IS NOT ACTIVE ON NODE 1976 INSTANCE 
             TISSUE_15MM-1 - THIS BOUNDARY CONDITION IS IGNORED

 ***WARNING: DEGREE OF FREEDOM 6 IS NOT ACTIVE ON NODE 1976 INSTANCE 
             TISSUE_15MM-1 - THIS BOUNDARY CONDITION IS IGNORED

 ***WARNING: DEGREE OF FREEDOM 4 IS NOT ACTIVE ON NODE 1977 INSTANCE 
             TISSUE_15MM-1 - THIS BOUNDARY CONDITION IS IGNORED

 ***WARNING: DEGREE OF FREEDOM 5 IS NOT ACTIVE ON NODE 1977 INSTANCE 
             TISSUE_15MM-1 - THIS BOUNDARY CONDITION IS IGNORED

 ***WARNING: DEGREE OF FREEDOM 6 IS NOT ACTIVE ON NODE 1977 INSTANCE 
             TISSUE_15MM-1 - THIS BOUNDARY CONDITION IS IGNORED

 ***WARNING: DEGREE OF FREEDOM 4 IS NOT ACTIVE ON NODE 1978 INSTANCE 
             TISSUE_15MM-1 - THIS BOUNDARY CONDITION IS IGNORED

 ***WARNING: DEGREE OF FREEDOM 5 IS NOT ACTIVE ON NODE 1978 INSTANCE 
             TISSUE_15MM-1 - THIS BOUNDARY CONDITION IS IGNORED

 ***WARNING: DEGREE OF FREEDOM 6 IS NOT ACTIVE ON NODE 1978 INSTANCE 
             TISSUE_15MM-1 - THIS BOUNDARY CONDITION IS IGNORED

 ***WARNING: DEGREE OF FREEDOM 4 IS NOT ACTIVE ON NODE 1979 INSTANCE 
             TISSUE_15MM-1 - THIS BOUNDARY CONDITION IS IGNORED

 ***WARNING: DEGREE OF FREEDOM 5 IS NOT ACTIVE ON NODE 1979 INSTANCE 
             TISSUE_15MM-1 - THIS BOUNDARY CONDITION IS IGNORED

 ***WARNING: DEGREE OF FREEDOM 6 IS NOT ACTIVE ON NODE 1979 INSTANCE 
             TISSUE_15MM-1 - THIS BOUNDARY CONDITION IS IGNORED

 ***WARNING: DEGREE OF FREEDOM 4 IS NOT ACTIVE ON NODE 1980 INSTANCE 
             TISSUE_15MM-1 - THIS BOUNDARY CONDITION IS IGNORED

 ***WARNING: DEGREE OF FREEDOM 5 IS NOT ACTIVE ON NODE 1980 INSTANCE 
             TISSUE_15MM-1 - THIS BOUNDARY CONDITION IS IGNORED

 ***WARNING: DEGREE OF FREEDOM 6 IS NOT ACTIVE ON NODE 1980 INSTANCE 
             TISSUE_15MM-1 - THIS BOUNDARY CONDITION IS IGNORED

 ***WARNING: DEGREE OF FREEDOM 4 IS NOT ACTIVE ON NODE 1981 INSTANCE 
             TISSUE_15MM-1 - THIS BOUNDARY CONDITION IS IGNORED

 ***WARNING: DEGREE OF FREEDOM 5 IS NOT ACTIVE ON NODE 1981 INSTANCE 
             TISSUE_15MM-1 - THIS BOUNDARY CONDITION IS IGNORED

 ***WARNING: DEGREE OF FREEDOM 6 IS NOT ACTIVE ON NODE 1981 INSTANCE 
             TISSUE_15MM-1 - THIS BOUNDARY CONDITION IS IGNORED

 ***WARNING: DEGREE OF FREEDOM 4 IS NOT ACTIVE ON NODE 1982 INSTANCE 
             TISSUE_15MM-1 - THIS BOUNDARY CONDITION IS IGNORED

 ***WARNING: DEGREE OF FREEDOM 5 IS NOT ACTIVE ON NODE 1982 INSTANCE 
             TISSUE_15MM-1 - THIS BOUNDARY CONDITION IS IGNORED

 ***WARNING: DEGREE OF FREEDOM 6 IS NOT ACTIVE ON NODE 1982 INSTANCE 
             TISSUE_15MM-1 - THIS BOUNDARY CONDITION IS IGNORED

 ***WARNING: DEGREE OF FREEDOM 4 IS NOT ACTIVE ON NODE 1983 INSTANCE 
             TISSUE_15MM-1 - THIS BOUNDARY CONDITION IS IGNORED

 ***WARNING: DEGREE OF FREEDOM 5 IS NOT ACTIVE ON NODE 1983 INSTANCE 
             TISSUE_15MM-1 - THIS BOUNDARY CONDITION IS IGNORED

 ***WARNING: DEGREE OF FREEDOM 6 IS NOT ACTIVE ON NODE 1983 INSTANCE 
             TISSUE_15MM-1 - THIS BOUNDARY CONDITION IS IGNORED

 ***WARNING: DEGREE OF FREEDOM 4 IS NOT ACTIVE ON NODE 1984 INSTANCE 
             TISSUE_15MM-1 - THIS BOUNDARY CONDITION IS IGNORED

 ***WARNING: DEGREE OF FREEDOM 5 IS NOT ACTIVE ON NODE 1984 INSTANCE 
             TISSUE_15MM-1 - THIS BOUNDARY CONDITION IS IGNORED

 ***WARNING: DEGREE OF FREEDOM 6 IS NOT ACTIVE ON NODE 1984 INSTANCE 
             TISSUE_15MM-1 - THIS BOUNDARY CONDITION IS IGNORED

 ***WARNING: DEGREE OF FREEDOM 4 IS NOT ACTIVE ON NODE 1985 INSTANCE 
             TISSUE_15MM-1 - THIS BOUNDARY CONDITION IS IGNORED

 ***WARNING: DEGREE OF FREEDOM 5 IS NOT ACTIVE ON NODE 1985 INSTANCE 
             TISSUE_15MM-1 - THIS BOUNDARY CONDITION IS IGNORED

 ***WARNING: DEGREE OF FREEDOM 6 IS NOT ACTIVE ON NODE 1985 INSTANCE 
             TISSUE_15MM-1 - THIS BOUNDARY CONDITION IS IGNORED

 ***WARNING: DEGREE OF FREEDOM 4 IS NOT ACTIVE ON NODE 1986 INSTANCE 
             TISSUE_15MM-1 - THIS BOUNDARY CONDITION IS IGNORED

 ***WARNING: DEGREE OF FREEDOM 5 IS NOT ACTIVE ON NODE 1986 INSTANCE 
             TISSUE_15MM-1 - THIS BOUNDARY CONDITION IS IGNORED

 ***WARNING: DEGREE OF FREEDOM 6 IS NOT ACTIVE ON NODE 1986 INSTANCE 
             TISSUE_15MM-1 - THIS BOUNDARY CONDITION IS IGNORED

 ***WARNING: DEGREE OF FREEDOM 4 IS NOT ACTIVE ON NODE 1987 INSTANCE 
             TISSUE_15MM-1 - THIS BOUNDARY CONDITION IS IGNORED

 ***WARNING: DEGREE OF FREEDOM 5 IS NOT ACTIVE ON NODE 1987 INSTANCE 
             TISSUE_15MM-1 - THIS BOUNDARY CONDITION IS IGNORED

 ***WARNING: DEGREE OF FREEDOM 6 IS NOT ACTIVE ON NODE 1987 INSTANCE 
             TISSUE_15MM-1 - THIS BOUNDARY CONDITION IS IGNORED

 
